LTspice 24.1.1 for Windows
Circuit: C:\Users\Usuario\Documents\LTspice\2_Si2342DS_nmos_simulation\Si2342DS.net
Start Time: Thu Oct 16 11:56:24 2025
solver = Normal
Maximum thread count: 8
tnom = 27
temp = 27
method = trap
Model "nmos": Oxide thickness thinner than recommended for a level 3 MOSFET.
Model "pmos": Oxide thickness thinner than recommended for a level 3 MOSFET.
Instance "m1:M1": Length shorter than recommended for a level 3 MOSFET.
Instance "m1:M2": Length shorter than recommended for a level 3 MOSFET.
.step Vgs=1 
.step Vgs=1.5 
.step Vgs=5 
Total elapsed time: 0.168 seconds.

Files loaded:
C:\Users\Usuario\Documents\LTspice\2_Si2342DS_nmos_simulation\Si2342DS.net
C:\Users\Usuario\Documents\LTspice\2_Si2342DS_nmos_simulation\si2342ds_ps_revb\Si2342DS_PS_RC_Rev_B.lib

