LTspice 24.1.1 for Windows
Circuit: C:\Users\Usuario\Documents\LTspice\1_LTC4370_CurrentBalancingController_SUM85N03-06P_nmos\LTC4370.net
Start Time: Thu Oct 16 15:13:10 2025
solver = Normal
Maximum thread count: 8
tnom = 27
temp = 27
method = trap
Instance "m1:M1": Length shorter than recommended for a level 3 MOSFET.
Instance "m1:M2": Length shorter than recommended for a level 3 MOSFET.
Instance "m2:M1": Length shorter than recommended for a level 3 MOSFET.
Instance "m2:M2": Length shorter than recommended for a level 3 MOSFET.
Direct Newton iteration failed to find .op point.  (Use ".option noopiter" to skip.)
Starting Gmin stepping
Gmin = 10
Gmin = 1.07374
Gmin = 0.115292
Gmin = 0.0123794
Gmin = 0.00132923
Gmin = 0.000142725
Gmin = 1.5325e-05
Gmin = 1.6455e-06
Gmin = 1.76685e-07
Gmin = 1.89714e-08
Gmin = 2.03704e-09
Gmin = 2.18725e-10
Gmin = 2.34854e-11
Gmin = 2.52173e-12
Gmin = 2.70769e-13
Gmin = 0
Gmin stepping succeeded in finding the operating point.

Changing Tseed to 1e-08
Changing Tseed to 1e-10
Changing Tseed to 1e-07
Changing Tseed to 1e-11
Changing Tseed to 1e-06
Changing Tseed to 1e-12
Changing Tseed to 1e-05
Changing Tseed to 1e-13
Warning: Simulation tolerance relaxed to achieve convergence from 9.9999998245167004e-14 
Convergence Failure:  Time step too small; time = 1e-13, timestep = 1.25e-19: trouble with instance "u1"

Simulation Failed: Iteration limit reached

Total elapsed time: 0.644 seconds.

Files loaded:
C:\Users\Usuario\Documents\LTspice\1_LTC4370_CurrentBalancingController_SUM85N03-06P_nmos\LTC4370.net
C:\Users\Usuario\Documents\LTspice\1_LTC4370_CurrentBalancingController_SUM85N03-06P_nmos\sum85n03\sum85n03-06P_PS.lib
C:\Users\Usuario\AppData\Local\LTspice\lib\sub\LTC4370.sub

