LTspice 24.1.1 for Windows
Circuit: C:\Users\Usuario\Documents\LTspice\1_LTC4370_Simulations\5_LTC4370_CurrentBalancing_Si7336ADP_ThirdParty\test2.net
Start Time: Tue Oct 21 16:55:15 2025
solver = Normal
Maximum thread count: 8
tnom = 27
temp = 27
method = trap
Instance "m1:M1": Length shorter than recommended for a level 3 MOSFET.
Instance "m1:M2": Length shorter than recommended for a level 3 MOSFET.
Instance "m2:M1": Length shorter than recommended for a level 3 MOSFET.
Instance "m2:M2": Length shorter than recommended for a level 3 MOSFET.
Direct Newton iteration failed to find .op point.  (Use ".option noopiter" to skip.)
Starting Gmin stepping
Gmin = 10
Gmin = 1.07374
vernier = 0.5
Gmin = 0.180144
vernier = 0.666667
Gmin = 0.0462512
vernier = 0.888888
vernier = 1
Gmin = 0.006089
Gmin = 0.000653801
Gmin = 7.02013e-05
Gmin = 7.53781e-06
Gmin = 8.09366e-07
Gmin = 8.6905e-08
Gmin = 9.33136e-09
Gmin = 1.00195e-09
Gmin = 1.07583e-10
Gmin = 1.15517e-11
Gmin = 1.24035e-12
Gmin = 1.33182e-13
Gmin = 0
Gmin stepping succeeded in finding the operating point.

Changing Tseed to 1e-08
Changing Tseed to 1e-10
Warning: Simulation tolerance relaxed to achieve convergence from 8.8697876075885107e-07 to 8.8697876075985110e-07 seconds.
Warning: Simulation tolerance relaxed to achieve convergence from 8.8697876075985110e-07 to 8.8697876076085112e-07 seconds.
Warning: Simulation tolerance relaxed to achieve convergence from 8.8697876076085112e-07 to 8.8697876076185115e-07 seconds.
Warning: Simulation tolerance relaxed to achieve convergence from 8.8697876076185115e-07 to 8.8697876076285118e-07 seconds.
Warning: Simulation tolerance relaxed to achieve convergence from 8.8697876076285118e-07 to 8.8697876076385121e-07 seconds.
Warning: Simulation tolerance relaxed to achieve convergence from 8.8697876076385121e-07 to 8.8697876076485124e-07 seconds.
Warning: Simulation tolerance relaxed to achieve convergence from 8.8697876076485124e-07 to 8.8697876076585127e-07 seconds.
Warning: Simulation tolerance relaxed to achieve convergence from 8.8697876076585127e-07 to 8.8697876076685129e-07 seconds.
Warning: Simulation tolerance relaxed to achieve convergence from 8.8697876076685129e-07 to 8.8697876076785132e-07 seconds.
Warning: Simulation tolerance relaxed to achieve convergence from 8.8697876076785132e-07 to 8.8697876076885135e-07 seconds.
Warning: Simulation tolerance relaxed to achieve convergence from 8.8697876076885135e-07 to 8.8697876076985138e-07 seconds.
Warning: Simulation tolerance relaxed to achieve convergence from 8.8697876076985138e-07 to 8.8697876077085141e-07 seconds.
Warning: Simulation tolerance relaxed to achieve convergence from 8.8697876077085141e-07 to 8.8697876077185144e-07 seconds.
Warning: Simulation tolerance relaxed to achieve convergence from 8.8697876077185144e-07 to 8.8697876077285146e-07 seconds.
Warning: Simulation tolerance relaxed to achieve convergence from 8.8697876077285146e-07 to 8.8697876077385149e-07 seconds.
Warning: Simulation tolerance relaxed to achieve convergence from 8.8697876077385149e-07 to 8.8697876077485152e-07 seconds.
Warning: Simulation tolerance relaxed to achieve convergence from 8.8697876077485152e-07 to 8.8697876077585155e-07 seconds.
Warning: Simulation tolerance relaxed to achieve convergence from 8.8697876077585155e-07 to 8.8697876077685158e-07 seconds.
Warning: Simulation tolerance relaxed to achieve convergence from 8.8697876077685158e-07 to 8.8697876077785160e-07 seconds.
Warning: Simulation tolerance relaxed to achieve convergence from 8.8697876077785160e-07 to 8.8697876077885163e-07 seconds.
Warning: Simulation tolerance relaxed to achieve convergence from 8.8697876077885163e-07 to 8.8697876077985166e-07 seconds.
Warning: Simulation tolerance relaxed to achieve convergence from 8.8697876077985166e-07 to 8.8697876078085169e-07 seconds.
Warning: Simulation tolerance relaxed to achieve convergence from 8.8697876078085169e-07 to 8.8697876078185172e-07 seconds.
Warning: Simulation tolerance relaxed to achieve convergence from 8.8697876078185172e-07 to 8.8697876078285175e-07 seconds.
Warning: Simulation tolerance relaxed to achieve convergence from 8.8697876078285175e-07 to 8.8697876078385177e-07 seconds.
Warning: Simulation tolerance relaxed to achieve convergence from 8.8697876078385177e-07 to 8.8697876078485180e-07 seconds.
Warning: Simulation tolerance relaxed to achieve convergence from 8.8697876078485180e-07 to 8.8697876078585183e-07 seconds.
Warning: Simulation tolerance relaxed to achieve convergence from 8.8697876078585183e-07 to 8.8697876078685186e-07 seconds.
Warning: Simulation tolerance relaxed to achieve convergence from 8.8697876078685186e-07 to 8.8697876078785189e-07 seconds.
Warning: Simulation tolerance relaxed to achieve convergence from 8.8697876078785189e-07 to 8.8697876078885192e-07 seconds.
Warning: Simulation tolerance relaxed to achieve convergence from 8.8697876078885192e-07 to 8.8697876078985194e-07 seconds.
Warning: Simulation tolerance relaxed to achieve convergence from 8.8697876078985194e-07 to 8.8697876079085197e-07 seconds.
Warning: Simulation tolerance relaxed to achieve convergence from 8.8697876079085197e-07 to 8.8697876079185200e-07 seconds.
Warning: Simulation tolerance relaxed to achieve convergence from 8.8697876079185200e-07 to 8.8697876079285203e-07 seconds.
Warning: Simulation tolerance relaxed to achieve convergence from 8.8697876079285203e-07 to 8.8697876079385206e-07 seconds.
Warning: Simulation tolerance relaxed to achieve convergence from 8.8697876079385206e-07 to 8.8697876079485209e-07 seconds.
Warning: Simulation tolerance relaxed to achieve convergence from 8.8697876079485209e-07 to 8.8697876079585211e-07 seconds.
Warning: Simulation tolerance relaxed to achieve convergence from 8.8697876079585211e-07 to 8.8697876079685214e-07 seconds.
Warning: Simulation tolerance relaxed to achieve convergence from 8.8697876079685214e-07 to 8.8697876079785217e-07 seconds.
Warning: Simulation tolerance relaxed to achieve convergence from 8.8697876079785217e-07 to 8.8697876079885220e-07 seconds.
Warning: Simulation tolerance relaxed to achieve convergence from 8.8697876079885220e-07 to 8.8697876079985223e-07 seconds.
Warning: Simulation tolerance relaxed to achieve convergence from 8.8697876079985223e-07 to 8.8697876080085225e-07 seconds.
Warning: Simulation tolerance relaxed to achieve convergence from 8.8697876080085225e-07 to 8.8697876080185228e-07 seconds.
Warning: Simulation tolerance relaxed to achieve convergence from 8.8697876080185228e-07 to 8.8697876080285231e-07 seconds.
Warning: Simulation tolerance relaxed to achieve convergence from 8.8697876080285231e-07 to 8.8697876080385234e-07 seconds.
Warning: Simulation tolerance relaxed to achieve convergence from 8.8697876080385234e-07 to 8.8697876080485237e-07 seconds.
Warning: Simulation tolerance relaxed to achieve convergence from 8.8697876080485237e-07 to 8.8697876080585240e-07 seconds.
Warning: Simulation tolerance relaxed to achieve convergence from 8.8697876080585240e-07 to 8.8697876080685242e-07 seconds.
Warning: Simulation tolerance relaxed to achieve convergence from 8.8697876080685242e-07 to 8.8697876080785245e-07 seconds.
Warning: Simulation tolerance relaxed to achieve convergence from 8.8697876080785245e-07 to 8.8697876080885248e-07 seconds.
Warning: Simulation tolerance relaxed to achieve convergence from 8.8697876080885248e-07 to 8.8697876080985251e-07 seconds.
Warning: Simulation tolerance relaxed to achieve convergence from 8.8697876080985251e-07 to 8.8697876081085254e-07 seconds.
Warning: Simulation tolerance relaxed to achieve convergence from 8.8697876081085254e-07 to 8.8697876081185257e-07 seconds.
Warning: Simulation tolerance relaxed to achieve convergence from 8.8697876081185257e-07 to 8.8697876081285259e-07 seconds.
Warning: Simulation tolerance relaxed to achieve convergence from 8.8697876081285259e-07 to 8.8697876081385262e-07 seconds.
Warning: Simulation tolerance relaxed to achieve convergence from 8.8697876081385262e-07 to 8.8697876081485265e-07 seconds.
Warning: Simulation tolerance relaxed to achieve convergence from 8.8697876081485265e-07 to 8.8697876081585268e-07 seconds.
Warning: Simulation tolerance relaxed to achieve convergence from 8.8697876081585268e-07 to 8.8697876081685271e-07 seconds.
Warning: Simulation tolerance relaxed to achieve convergence from 8.8697876081685271e-07 to 8.8697876081785274e-07 seconds.
Warning: Simulation tolerance relaxed to achieve convergence from 8.8697876081785274e-07 to 8.8697876081885276e-07 seconds.
Warning: Simulation tolerance relaxed to achieve convergence from 8.8697876081885276e-07 to 8.8697876081985279e-07 seconds.
Warning: Simulation tolerance relaxed to achieve convergence from 8.8697876081985279e-07 to 8.8697876082085282e-07 seconds.
Warning: Simulation tolerance relaxed to achieve convergence from 8.8697876082085282e-07 to 8.8697876082185285e-07 seconds.
Warning: Simulation tolerance relaxed to achieve convergence from 8.8697876082185285e-07 to 8.8697876082285288e-07 seconds.
Warning: Simulation tolerance relaxed to achieve convergence from 8.8697876082285288e-07 to 8.8697876082385291e-07 seconds.
Warning: Simulation tolerance relaxed to achieve convergence from 8.8697876082385291e-07 to 8.8697876082485293e-07 seconds.
Warning: Simulation tolerance relaxed to achieve convergence from 8.8697876082485293e-07 to 8.8697876082585296e-07 seconds.
Warning: Simulation tolerance relaxed to achieve convergence from 8.8697876082585296e-07 to 8.8697876082685299e-07 seconds.
Warning: Simulation tolerance relaxed to achieve convergence from 8.8697876082685299e-07 to 8.8697876082785302e-07 seconds.
Warning: Simulation tolerance relaxed to achieve convergence from 8.8697876082785302e-07 to 8.8697876082885305e-07 seconds.
Warning: Simulation tolerance relaxed to achieve convergence from 8.8697876082885305e-07 to 8.8697876082985307e-07 seconds.
Warning: Simulation tolerance relaxed to achieve convergence from 8.8697876082985307e-07 to 8.8697876083085310e-07 seconds.
Warning: Simulation tolerance relaxed to achieve convergence from 8.8697876083085310e-07 to 8.8697876083185313e-07 seconds.
Warning: Simulation tolerance relaxed to achieve convergence from 8.8697876083185313e-07 to 8.8697876083285316e-07 seconds.
Warning: Simulation tolerance relaxed to achieve convergence from 8.8697876083285316e-07 to 8.8697876083385319e-07 seconds.
Warning: Simulation tolerance relaxed to achieve convergence from 8.8697876083385319e-07 to 8.8697876083485322e-07 seconds.
Warning: Simulation tolerance relaxed to achieve convergence from 8.8697876083485322e-07 to 8.8697876083585324e-07 seconds.
Warning: Simulation tolerance relaxed to achieve convergence from 8.8697876083585324e-07 to 8.8697876083685327e-07 seconds.
Warning: Simulation tolerance relaxed to achieve convergence from 8.8697876083685327e-07 to 8.8697876083785330e-07 seconds.
Warning: Simulation tolerance relaxed to achieve convergence from 8.8697876083785330e-07 to 8.8697876083885333e-07 seconds.
Warning: Simulation tolerance relaxed to achieve convergence from 8.8697876083885333e-07 to 8.8697876083985336e-07 seconds.
Warning: Simulation tolerance relaxed to achieve convergence from 8.8697876083985336e-07 to 8.8697876084085339e-07 seconds.
Warning: Simulation tolerance relaxed to achieve convergence from 8.8697876084085339e-07 to 8.8697876084185341e-07 seconds.
Warning: Simulation tolerance relaxed to achieve convergence from 8.8697876084185341e-07 to 8.8697876084285344e-07 seconds.
Warning: Simulation tolerance relaxed to achieve convergence from 8.8697876084285344e-07 to 8.8697876084385347e-07 seconds.
Warning: Simulation tolerance relaxed to achieve convergence from 8.8697876084385347e-07 to 8.8697876084485350e-07 seconds.
Warning: Simulation tolerance relaxed to achieve convergence from 8.8697876084485350e-07 to 8.8697876084585353e-07 seconds.
Warning: Simulation tolerance relaxed to achieve convergence from 8.8697876084585353e-07 to 8.8697876084685356e-07 seconds.
Warning: Simulation tolerance relaxed to achieve convergence from 8.8697876084685356e-07 to 8.8697876084785358e-07 seconds.
Warning: Simulation tolerance relaxed to achieve convergence from 8.8697876084785358e-07 to 8.8697876084885361e-07 seconds.
Warning: Simulation tolerance relaxed to achieve convergence from 8.8697876084885361e-07 to 8.8697876084985364e-07 seconds.
Warning: Simulation tolerance relaxed to achieve convergence from 8.8697876084985364e-07 to 8.8697876085085367e-07 seconds.
Warning: Simulation tolerance relaxed to achieve convergence from 8.8697876085085367e-07 to 8.8697876085185370e-07 seconds.
Warning: Simulation tolerance relaxed to achieve convergence from 8.8697876085185370e-07 to 8.8697876085285373e-07 seconds.
Warning: Simulation tolerance relaxed to achieve convergence from 8.8697876085285373e-07 to 8.8697876085385375e-07 seconds.
Warning: Simulation tolerance relaxed to achieve convergence from 8.8697876085385375e-07 to 8.8697876085485378e-07 seconds.
Warning: Simulation tolerance relaxed to achieve convergence from 8.8697876085485378e-07 to 8.8697876085585381e-07 seconds.
Warning: Simulation tolerance relaxed to achieve convergence from 8.8697876085585381e-07 to 8.8697876085685384e-07 seconds.
Warning: Simulation tolerance relaxed to achieve convergence from 8.8697876085685384e-07 to 8.8697876085785387e-07 seconds.
Warning: Simulation tolerance relaxed to achieve convergence from 8.8697876085785387e-07 to 8.8697876085885389e-07 seconds.
Warning: Simulation tolerance relaxed to achieve convergence from 8.8697876085885389e-07 to 8.8697876085985392e-07 seconds.
Warning: Simulation tolerance relaxed to achieve convergence from 8.8697876085985392e-07 to 8.8697876086085395e-07 seconds.
Warning: Simulation tolerance relaxed to achieve convergence from 8.8697876086085395e-07 to 8.8697876086185398e-07 seconds.
Warning: Simulation tolerance relaxed to achieve convergence from 8.8697876086185398e-07 to 8.8697876086285401e-07 seconds.
Warning: Simulation tolerance relaxed to achieve convergence from 8.8697876086285401e-07 to 8.8697876086385404e-07 seconds.
Warning: Simulation tolerance relaxed to achieve convergence from 8.8697876086385404e-07 to 8.8697876086485406e-07 seconds.
Warning: Simulation tolerance relaxed to achieve convergence from 8.8697876086485406e-07 to 8.8697876086585409e-07 seconds.
Warning: Simulation tolerance relaxed to achieve convergence from 8.8697876086585409e-07 to 8.8697876086685412e-07 seconds.
Warning: Simulation tolerance relaxed to achieve convergence from 8.8697876086685412e-07 to 8.8697876086785415e-07 seconds.
Warning: Simulation tolerance relaxed to achieve convergence from 8.8697876086785415e-07 to 8.8697876086885418e-07 seconds.
Warning: Simulation tolerance relaxed to achieve convergence from 8.8697876086885418e-07 to 8.8697876086985421e-07 seconds.
Warning: Simulation tolerance relaxed to achieve convergence from 8.8697876086985421e-07 to 8.8697876087085423e-07 seconds.
Warning: Simulation tolerance relaxed to achieve convergence from 8.8697876087085423e-07 to 8.8697876087185426e-07 seconds.
Warning: Simulation tolerance relaxed to achieve convergence from 8.8697876087185426e-07 to 8.8697876087285429e-07 seconds.
Warning: Simulation tolerance relaxed to achieve convergence from 8.8697876087285429e-07 to 8.8697876087385432e-07 seconds.
Warning: Simulation tolerance relaxed to achieve convergence from 8.8697876087385432e-07 to 8.8697876087485435e-07 seconds.
Warning: Simulation tolerance relaxed to achieve convergence from 8.8697876087485435e-07 to 8.8697876087585438e-07 seconds.
Warning: Simulation tolerance relaxed to achieve convergence from 8.8697876087585438e-07 to 8.8697876087685440e-07 seconds.
Warning: Simulation tolerance relaxed to achieve convergence from 8.8697876087685440e-07 to 8.8697876087785443e-07 seconds.
Warning: Simulation tolerance relaxed to achieve convergence from 8.8697876087785443e-07 to 8.8697876087885446e-07 seconds.
Warning: Simulation tolerance relaxed to achieve convergence from 8.8697876087885446e-07 to 8.8697876087985449e-07 seconds.
Warning: Simulation tolerance relaxed to achieve convergence from 8.8697876087985449e-07 to 8.8697876088085452e-07 seconds.
Warning: Simulation tolerance relaxed to achieve convergence from 8.8697876088085452e-07 to 8.8697876088185455e-07 seconds.
Warning: Simulation tolerance relaxed to achieve convergence from 8.8697876088185455e-07 to 8.8697876088285457e-07 seconds.
Warning: Simulation tolerance relaxed to achieve convergence from 8.8697876088285457e-07 to 8.8697876088385460e-07 seconds.
Warning: Simulation tolerance relaxed to achieve convergence from 8.8697876088385460e-07 to 8.8697876088485463e-07 seconds.
Warning: Simulation tolerance relaxed to achieve convergence from 8.8697876088485463e-07 to 8.8697876088585466e-07 seconds.
Warning: Simulation tolerance relaxed to achieve convergence from 8.8697876088585466e-07 to 8.8697876088685469e-07 seconds.
Warning: Simulation tolerance relaxed to achieve convergence from 8.8697876088685469e-07 to 8.8697876088785471e-07 seconds.
Warning: Simulation tolerance relaxed to achieve convergence from 8.8697876088785471e-07 to 8.8697876088885474e-07 seconds.
Warning: Simulation tolerance relaxed to achieve convergence from 8.8697876088885474e-07 to 8.8697876088985477e-07 seconds.
Warning: Simulation tolerance relaxed to achieve convergence from 8.8697876088985477e-07 to 8.8697876089085480e-07 seconds.
Warning: Simulation tolerance relaxed to achieve convergence from 8.8697876089085480e-07 to 8.8697876089185483e-07 seconds.
Warning: Simulation tolerance relaxed to achieve convergence from 8.8697876089185483e-07 to 8.8697876089285486e-07 seconds.
Warning: Simulation tolerance relaxed to achieve convergence from 8.8697876089285486e-07 to 8.8697876089385488e-07 seconds.
Warning: Simulation tolerance relaxed to achieve convergence from 8.8697876089385488e-07 to 8.8697876089485491e-07 seconds.
Warning: Simulation tolerance relaxed to achieve convergence from 8.8697876089485491e-07 to 8.8697876089585494e-07 seconds.
Warning: Simulation tolerance relaxed to achieve convergence from 8.8697876089585494e-07 to 8.8697876089685497e-07 seconds.
Warning: Simulation tolerance relaxed to achieve convergence from 8.8697876089685497e-07 to 8.8697876089785500e-07 seconds.
Warning: Simulation tolerance relaxed to achieve convergence from 8.8697876089785500e-07 to 8.8697876089885503e-07 seconds.
Warning: Simulation tolerance relaxed to achieve convergence from 8.8697876089885503e-07 to 8.8697876089985505e-07 seconds.
Warning: Simulation tolerance relaxed to achieve convergence from 8.8697876089985505e-07 to 8.8697876090085508e-07 seconds.
Warning: Simulation tolerance relaxed to achieve convergence from 8.8697876090085508e-07 to 8.8697876090185511e-07 seconds.
Warning: Simulation tolerance relaxed to achieve convergence from 8.8697876090185511e-07 to 8.8697876090285514e-07 seconds.
Warning: Simulation tolerance relaxed to achieve convergence from 8.8697876090285514e-07 to 8.8697876090385517e-07 seconds.
Warning: Simulation tolerance relaxed to achieve convergence from 8.8697876090385517e-07 to 8.8697876090485520e-07 seconds.
Warning: Simulation tolerance relaxed to achieve convergence from 8.8697876090485520e-07 to 8.8697876090585522e-07 seconds.
Warning: Simulation tolerance relaxed to achieve convergence from 8.8697876090585522e-07 to 8.8697876090685525e-07 seconds.
Warning: Simulation tolerance relaxed to achieve convergence from 8.8697876090685525e-07 to 8.8697876090785528e-07 seconds.
Warning: Simulation tolerance relaxed to achieve convergence from 8.8697876090785528e-07 to 8.8697876090885531e-07 seconds.
Warning: Simulation tolerance relaxed to achieve convergence from 8.8697876090885531e-07 to 8.8697876090985534e-07 seconds.
Warning: Simulation tolerance relaxed to achieve convergence from 8.8697876090985534e-07 to 8.8697876091085537e-07 seconds.
Warning: Simulation tolerance relaxed to achieve convergence from 8.8697876091085537e-07 to 8.8697876091185539e-07 seconds.
Warning: Simulation tolerance relaxed to achieve convergence from 8.8697876091185539e-07 to 8.8697876091285542e-07 seconds.
Warning: Simulation tolerance relaxed to achieve convergence from 8.8697876091285542e-07 to 8.8697876091385545e-07 seconds.
Warning: Simulation tolerance relaxed to achieve convergence from 8.8697876091385545e-07 to 8.8697876091485548e-07 seconds.
Warning: Simulation tolerance relaxed to achieve convergence from 8.8697876091485548e-07 to 8.8697876091585551e-07 seconds.
Warning: Simulation tolerance relaxed to achieve convergence from 8.8697876091585551e-07 to 8.8697876091685553e-07 seconds.
Warning: Simulation tolerance relaxed to achieve convergence from 8.8697876091685553e-07 to 8.8697876091785556e-07 seconds.
Warning: Simulation tolerance relaxed to achieve convergence from 8.8697876091785556e-07 to 8.8697876091885559e-07 seconds.
Warning: Simulation tolerance relaxed to achieve convergence from 8.8697876091885559e-07 to 8.8697876091985562e-07 seconds.
Warning: Simulation tolerance relaxed to achieve convergence from 8.8697876091985562e-07 to 8.8697876092085565e-07 seconds.
Warning: Simulation tolerance relaxed to achieve convergence from 8.8697876092085565e-07 to 8.8697876092185568e-07 seconds.
Warning: Simulation tolerance relaxed to achieve convergence from 8.8697876092185568e-07 to 8.8697876092285570e-07 seconds.
Warning: Simulation tolerance relaxed to achieve convergence from 8.8697876092285570e-07 to 8.8697876092385573e-07 seconds.
Warning: Simulation tolerance relaxed to achieve convergence from 8.8697876092385573e-07 to 8.8697876092485576e-07 seconds.
Warning: Simulation tolerance relaxed to achieve convergence from 8.8697876092485576e-07 to 8.8697876092585579e-07 seconds.
Warning: Simulation tolerance relaxed to achieve convergence from 8.8697876092585579e-07 to 8.8697876092685582e-07 seconds.
Warning: Simulation tolerance relaxed to achieve convergence from 8.8697876092685582e-07 to 8.8697876092785585e-07 seconds.
Warning: Simulation tolerance relaxed to achieve convergence from 8.8697876092785585e-07 to 8.8697876092885587e-07 seconds.
Warning: Simulation tolerance relaxed to achieve convergence from 8.8697876092885587e-07 to 8.8697876092985590e-07 seconds.
Warning: Simulation tolerance relaxed to achieve convergence from 8.8697876092985590e-07 to 8.8697876093085593e-07 seconds.
Warning: Simulation tolerance relaxed to achieve convergence from 8.8697876093085593e-07 to 8.8697876093185596e-07 seconds.
Warning: Simulation tolerance relaxed to achieve convergence from 8.8697876093185596e-07 to 8.8697876093285599e-07 seconds.
Warning: Simulation tolerance relaxed to achieve convergence from 8.8697876093285599e-07 to 8.8697876093385602e-07 seconds.
Warning: Simulation tolerance relaxed to achieve convergence from 8.8697876093385602e-07 to 8.8697876093485604e-07 seconds.
Warning: Simulation tolerance relaxed to achieve convergence from 8.8697876093485604e-07 to 8.8697876093585607e-07 seconds.
Warning: Simulation tolerance relaxed to achieve convergence from 8.8697876093585607e-07 to 8.8697876093685610e-07 seconds.
Warning: Simulation tolerance relaxed to achieve convergence from 8.8697876093685610e-07 to 8.8697876093785613e-07 seconds.
Warning: Simulation tolerance relaxed to achieve convergence from 8.8697876093785613e-07 to 8.8697876093885616e-07 seconds.
Warning: Simulation tolerance relaxed to achieve convergence from 8.8697876093885616e-07 to 8.8697876093985618e-07 seconds.
Warning: Simulation tolerance relaxed to achieve convergence from 8.8697876093985618e-07 to 8.8697876094085621e-07 seconds.
Warning: Simulation tolerance relaxed to achieve convergence from 8.8697876094085621e-07 to 8.8697876094185624e-07 seconds.
Warning: Simulation tolerance relaxed to achieve convergence from 8.8697876094185624e-07 to 8.8697876094285627e-07 seconds.
Warning: Simulation tolerance relaxed to achieve convergence from 8.8697876094285627e-07 to 8.8697876094385630e-07 seconds.
Warning: Simulation tolerance relaxed to achieve convergence from 8.8697876094385630e-07 to 8.8697876094485633e-07 seconds.
Warning: Simulation tolerance relaxed to achieve convergence from 8.8697876094485633e-07 to 8.8697876094585635e-07 seconds.
Warning: Simulation tolerance relaxed to achieve convergence from 8.8697876094585635e-07 to 8.8697876094685638e-07 seconds.
Warning: Simulation tolerance relaxed to achieve convergence from 8.8697876094685638e-07 to 8.8697876094785641e-07 seconds.
Warning: Simulation tolerance relaxed to achieve convergence from 8.8697876094785641e-07 to 8.8697876094885644e-07 seconds.
Warning: Simulation tolerance relaxed to achieve convergence from 8.8697876094885644e-07 to 8.8697876094985647e-07 seconds.
Warning: Simulation tolerance relaxed to achieve convergence from 8.8697876094985647e-07 to 8.8697876095085650e-07 seconds.
Warning: Simulation tolerance relaxed to achieve convergence from 8.8697876095085650e-07 to 8.8697876095185652e-07 seconds.
Warning: Simulation tolerance relaxed to achieve convergence from 8.8697876095185652e-07 to 8.8697876095285655e-07 seconds.
Warning: Simulation tolerance relaxed to achieve convergence from 8.8697876095285655e-07 to 8.8697876095385658e-07 seconds.
Warning: Simulation tolerance relaxed to achieve convergence from 8.8697876095385658e-07 to 8.8697876095485661e-07 seconds.
Warning: Simulation tolerance relaxed to achieve convergence from 8.8697876095485661e-07 to 8.8697876095585664e-07 seconds.
Warning: Simulation tolerance relaxed to achieve convergence from 8.8697876095585664e-07 to 8.8697876095685667e-07 seconds.
Warning: Simulation tolerance relaxed to achieve convergence from 8.8697876095685667e-07 to 8.8697876095785669e-07 seconds.
Warning: Simulation tolerance relaxed to achieve convergence from 8.8697876095785669e-07 to 8.8697876095885672e-07 seconds.
Warning: Simulation tolerance relaxed to achieve convergence from 8.8697876095885672e-07 to 8.8697876095985675e-07 seconds.
Warning: Simulation tolerance relaxed to achieve convergence from 8.8697876095985675e-07 to 8.8697876096085678e-07 seconds.
Warning: Simulation tolerance relaxed to achieve convergence from 8.8697876096085678e-07 to 8.8697876096185681e-07 seconds.
Warning: Simulation tolerance relaxed to achieve convergence from 8.8697876096185681e-07 to 8.8697876096285684e-07 seconds.
Warning: Simulation tolerance relaxed to achieve convergence from 8.8697876096285684e-07 to 8.8697876096385686e-07 seconds.
Warning: Simulation tolerance relaxed to achieve convergence from 8.8697876096385686e-07 to 8.8697876096485689e-07 seconds.
Warning: Simulation tolerance relaxed to achieve convergence from 8.8697876096485689e-07 to 8.8697876096585692e-07 seconds.
Warning: Simulation tolerance relaxed to achieve convergence from 8.8697876096585692e-07 to 8.8697876096685695e-07 seconds.
Warning: Simulation tolerance relaxed to achieve convergence from 8.8697876096685695e-07 to 8.8697876096785698e-07 seconds.
Warning: Simulation tolerance relaxed to achieve convergence from 8.8697876096785698e-07 to 8.8697876096885700e-07 seconds.
Warning: Simulation tolerance relaxed to achieve convergence from 8.8697876096885700e-07 to 8.8697876096985703e-07 seconds.
Warning: Simulation tolerance relaxed to achieve convergence from 8.8697876096985703e-07 to 8.8697876097085706e-07 seconds.
Warning: Simulation tolerance relaxed to achieve convergence from 8.8697876097085706e-07 to 8.8697876097185709e-07 seconds.
Warning: Simulation tolerance relaxed to achieve convergence from 8.8697876097185709e-07 to 8.8697876097285712e-07 seconds.
Warning: Simulation tolerance relaxed to achieve convergence from 8.8697876097285712e-07 to 8.8697876097385715e-07 seconds.
Warning: Simulation tolerance relaxed to achieve convergence from 8.8697876097385715e-07 to 8.8697876097485717e-07 seconds.
Warning: Simulation tolerance relaxed to achieve convergence from 8.8697876097485717e-07 to 8.8697876097585720e-07 seconds.
Warning: Simulation tolerance relaxed to achieve convergence from 8.8697876097585720e-07 to 8.8697876097685723e-07 seconds.
Warning: Simulation tolerance relaxed to achieve convergence from 8.8697876097685723e-07 to 8.8697876097785726e-07 seconds.
Warning: Simulation tolerance relaxed to achieve convergence from 8.8697876097785726e-07 to 8.8697876097885729e-07 seconds.
Warning: Simulation tolerance relaxed to achieve convergence from 8.8697876097885729e-07 to 8.8697876097985732e-07 seconds.
Warning: Simulation tolerance relaxed to achieve convergence from 8.8697876097985732e-07 to 8.8697876098085734e-07 seconds.
Warning: Simulation tolerance relaxed to achieve convergence from 8.8697876098085734e-07 to 8.8697876098185737e-07 seconds.
Warning: Simulation tolerance relaxed to achieve convergence from 8.8697876098185737e-07 to 8.8697876098285740e-07 seconds.
Warning: Simulation tolerance relaxed to achieve convergence from 8.8697876098285740e-07 to 8.8697876098385743e-07 seconds.
Warning: Simulation tolerance relaxed to achieve convergence from 8.8697876098385743e-07 to 8.8697876098485746e-07 seconds.
Warning: Simulation tolerance relaxed to achieve convergence from 8.8697876098485746e-07 to 8.8697876098585749e-07 seconds.
Warning: Simulation tolerance relaxed to achieve convergence from 8.8697876098585749e-07 to 8.8697876098685751e-07 seconds.
Warning: Simulation tolerance relaxed to achieve convergence from 8.8697876098685751e-07 to 8.8697876098785754e-07 seconds.
Warning: Simulation tolerance relaxed to achieve convergence from 8.8697876098785754e-07 to 8.8697876098885757e-07 seconds.
Warning: Simulation tolerance relaxed to achieve convergence from 8.8697876098885757e-07 to 8.8697876098985760e-07 seconds.
Warning: Simulation tolerance relaxed to achieve convergence from 8.8697876098985760e-07 to 8.8697876099085763e-07 seconds.
Warning: Simulation tolerance relaxed to achieve convergence from 8.8697876099085763e-07 to 8.8697876099185766e-07 seconds.
Warning: Simulation tolerance relaxed to achieve convergence from 8.8697876099185766e-07 to 8.8697876099285768e-07 seconds.
Warning: Simulation tolerance relaxed to achieve convergence from 8.8697876099285768e-07 to 8.8697876099385771e-07 seconds.
Warning: Simulation tolerance relaxed to achieve convergence from 8.8697876099385771e-07 to 8.8697876099485774e-07 seconds.
Warning: Simulation tolerance relaxed to achieve convergence from 8.8697876099485774e-07 to 8.8697876099585777e-07 seconds.
Warning: Simulation tolerance relaxed to achieve convergence from 8.8697876099585777e-07 to 8.8697876099685780e-07 seconds.
Warning: Simulation tolerance relaxed to achieve convergence from 8.8697876099685780e-07 to 8.8697876099785782e-07 seconds.
Warning: Simulation tolerance relaxed to achieve convergence from 8.8697876099785782e-07 to 8.8697876099885785e-07 seconds.
Warning: Simulation tolerance relaxed to achieve convergence from 8.8697876099885785e-07 to 8.8697876099985788e-07 seconds.
Warning: Simulation tolerance relaxed to achieve convergence from 8.8697876099985788e-07 to 8.8697876100085791e-07 seconds.
Warning: Simulation tolerance relaxed to achieve convergence from 8.8697876100085791e-07 to 8.8697876100185794e-07 seconds.
Warning: Simulation tolerance relaxed to achieve convergence from 8.8697876100185794e-07 to 8.8697876100285797e-07 seconds.
Warning: Simulation tolerance relaxed to achieve convergence from 8.8697876100285797e-07 to 8.8697876100385799e-07 seconds.
Warning: Simulation tolerance relaxed to achieve convergence from 8.8697876100385799e-07 to 8.8697876100485802e-07 seconds.
Warning: Simulation tolerance relaxed to achieve convergence from 8.8697876100485802e-07 to 8.8697876100585805e-07 seconds.
Warning: Simulation tolerance relaxed to achieve convergence from 8.8697876100585805e-07 to 8.8697876100685808e-07 seconds.
Warning: Simulation tolerance relaxed to achieve convergence from 8.8697876100685808e-07 to 8.8697876100785811e-07 seconds.
Warning: Simulation tolerance relaxed to achieve convergence from 8.8697876100785811e-07 to 8.8697876100885814e-07 seconds.
Warning: Simulation tolerance relaxed to achieve convergence from 8.8697876100885814e-07 to 8.8697876100985816e-07 seconds.
Warning: Simulation tolerance relaxed to achieve convergence from 8.8697876100985816e-07 to 8.8697876101085819e-07 seconds.
Warning: Simulation tolerance relaxed to achieve convergence from 8.8697876101085819e-07 to 8.8697876101185822e-07 seconds.
Warning: Simulation tolerance relaxed to achieve convergence from 8.8697876101185822e-07 to 8.8697876101285825e-07 seconds.
Warning: Simulation tolerance relaxed to achieve convergence from 8.8697876101285825e-07 to 8.8697876101385828e-07 seconds.
Warning: Simulation tolerance relaxed to achieve convergence from 8.8697876101385828e-07 to 8.8697876101485831e-07 seconds.
Warning: Simulation tolerance relaxed to achieve convergence from 8.8697876101485831e-07 to 8.8697876101585833e-07 seconds.
Warning: Simulation tolerance relaxed to achieve convergence from 8.8697876101585833e-07 to 8.8697876101685836e-07 seconds.
Warning: Simulation tolerance relaxed to achieve convergence from 8.8697876101685836e-07 to 8.8697876101785839e-07 seconds.
Warning: Simulation tolerance relaxed to achieve convergence from 8.8697876101785839e-07 to 8.8697876101885842e-07 seconds.
Warning: Simulation tolerance relaxed to achieve convergence from 8.8697876101885842e-07 to 8.8697876101985845e-07 seconds.
Warning: Simulation tolerance relaxed to achieve convergence from 8.8697876101985845e-07 to 8.8697876102085848e-07 seconds.
Warning: Simulation tolerance relaxed to achieve convergence from 8.8697876102085848e-07 to 8.8697876102185850e-07 seconds.
Warning: Simulation tolerance relaxed to achieve convergence from 8.8697876102185850e-07 to 8.8697876102285853e-07 seconds.
Warning: Simulation tolerance relaxed to achieve convergence from 8.8697876102285853e-07 to 8.8697876102385856e-07 seconds.
Warning: Simulation tolerance relaxed to achieve convergence from 8.8697876102385856e-07 to 8.8697876102485859e-07 seconds.
Warning: Simulation tolerance relaxed to achieve convergence from 8.8697876102485859e-07 to 8.8697876102585862e-07 seconds.
Warning: Simulation tolerance relaxed to achieve convergence from 8.8697876102585862e-07 to 8.8697876102685864e-07 seconds.
Warning: Simulation tolerance relaxed to achieve convergence from 8.8697876102685864e-07 to 8.8697876102785867e-07 seconds.
Warning: Simulation tolerance relaxed to achieve convergence from 8.8697876102785867e-07 to 8.8697876102885870e-07 seconds.
Warning: Simulation tolerance relaxed to achieve convergence from 8.8697876102885870e-07 to 8.8697876102985873e-07 seconds.
Warning: Simulation tolerance relaxed to achieve convergence from 8.8697876102985873e-07 to 8.8697876103085876e-07 seconds.
Warning: Simulation tolerance relaxed to achieve convergence from 8.8697876103085876e-07 to 8.8697876103185879e-07 seconds.
Warning: Simulation tolerance relaxed to achieve convergence from 8.8697876103185879e-07 to 8.8697876103285881e-07 seconds.
Warning: Simulation tolerance relaxed to achieve convergence from 8.8697876103285881e-07 to 8.8697876103385884e-07 seconds.
Warning: Simulation tolerance relaxed to achieve convergence from 8.8697876103385884e-07 to 8.8697876103485887e-07 seconds.
Warning: Simulation tolerance relaxed to achieve convergence from 8.8697876103485887e-07 to 8.8697876103585890e-07 seconds.
Warning: Simulation tolerance relaxed to achieve convergence from 8.8697876103585890e-07 to 8.8697876103685893e-07 seconds.
Warning: Simulation tolerance relaxed to achieve convergence from 8.8697876103685893e-07 to 8.8697876103785896e-07 seconds.
Warning: Simulation tolerance relaxed to achieve convergence from 8.8697876103785896e-07 to 8.8697876103885898e-07 seconds.
Warning: Simulation tolerance relaxed to achieve convergence from 8.8697876103885898e-07 to 8.8697876103985901e-07 seconds.
Warning: Simulation tolerance relaxed to achieve convergence from 8.8697876103985901e-07 to 8.8697876104085904e-07 seconds.
Warning: Simulation tolerance relaxed to achieve convergence from 8.8697876104085904e-07 to 8.8697876104185907e-07 seconds.
Warning: Simulation tolerance relaxed to achieve convergence from 8.8697876104185907e-07 to 8.8697876104285910e-07 seconds.
Warning: Simulation tolerance relaxed to achieve convergence from 8.8697876104285910e-07 to 8.8697876104385913e-07 seconds.
Warning: Simulation tolerance relaxed to achieve convergence from 8.8697876104385913e-07 to 8.8697876104485915e-07 seconds.
Warning: Simulation tolerance relaxed to achieve convergence from 8.8697876104485915e-07 to 8.8697876104585918e-07 seconds.
Warning: Simulation tolerance relaxed to achieve convergence from 8.8697876104585918e-07 to 8.8697876104685921e-07 seconds.
Warning: Simulation tolerance relaxed to achieve convergence from 8.8697876104685921e-07 to 8.8697876104785924e-07 seconds.
Warning: Simulation tolerance relaxed to achieve convergence from 8.8697876104785924e-07 to 8.8697876104885927e-07 seconds.
Warning: Simulation tolerance relaxed to achieve convergence from 8.8697876104885927e-07 to 8.8697876104985930e-07 seconds.
Warning: Simulation tolerance relaxed to achieve convergence from 8.8697876104985930e-07 to 8.8697876105085932e-07 seconds.
Warning: Simulation tolerance relaxed to achieve convergence from 8.8697876105085932e-07 to 8.8697876105185935e-07 seconds.
Warning: Simulation tolerance relaxed to achieve convergence from 8.8697876105185935e-07 to 8.8697876105285938e-07 seconds.
Warning: Simulation tolerance relaxed to achieve convergence from 8.8697876105285938e-07 to 8.8697876105385941e-07 seconds.
Warning: Simulation tolerance relaxed to achieve convergence from 8.8697876105385941e-07 to 8.8697876105485944e-07 seconds.
Warning: Simulation tolerance relaxed to achieve convergence from 8.8697876105485944e-07 to 8.8697876105585946e-07 seconds.
Warning: Simulation tolerance relaxed to achieve convergence from 8.8697876105585946e-07 to 8.8697876105685949e-07 seconds.
Warning: Simulation tolerance relaxed to achieve convergence from 8.8697876105685949e-07 to 8.8697876105785952e-07 seconds.
Warning: Simulation tolerance relaxed to achieve convergence from 8.8697876105785952e-07 to 8.8697876105885955e-07 seconds.
Warning: Simulation tolerance relaxed to achieve convergence from 8.8697876105885955e-07 to 8.8697876105985958e-07 seconds.
Warning: Simulation tolerance relaxed to achieve convergence from 8.8697876105985958e-07 to 8.8697876106085961e-07 seconds.
Warning: Simulation tolerance relaxed to achieve convergence from 8.8697876106085961e-07 to 8.8697876106185963e-07 seconds.
Warning: Simulation tolerance relaxed to achieve convergence from 8.8697876106185963e-07 to 8.8697876106285966e-07 seconds.
Warning: Simulation tolerance relaxed to achieve convergence from 8.8697876106285966e-07 to 8.8697876106385969e-07 seconds.
Warning: Simulation tolerance relaxed to achieve convergence from 8.8697876106385969e-07 to 8.8697876106485972e-07 seconds.
Warning: Simulation tolerance relaxed to achieve convergence from 8.8697876106485972e-07 to 8.8697876106585975e-07 seconds.
Warning: Simulation tolerance relaxed to achieve convergence from 8.8697876106585975e-07 to 8.8697876106685978e-07 seconds.
Warning: Simulation tolerance relaxed to achieve convergence from 8.8697876106685978e-07 to 8.8697876106785980e-07 seconds.
Warning: Simulation tolerance relaxed to achieve convergence from 8.8697876106785980e-07 to 8.8697876106885983e-07 seconds.
Warning: Simulation tolerance relaxed to achieve convergence from 8.8697876106885983e-07 to 8.8697876106985986e-07 seconds.
Warning: Simulation tolerance relaxed to achieve convergence from 8.8697876106985986e-07 to 8.8697876107085989e-07 seconds.
Warning: Simulation tolerance relaxed to achieve convergence from 8.8697876107085989e-07 to 8.8697876107185992e-07 seconds.
Warning: Simulation tolerance relaxed to achieve convergence from 8.8697876107185992e-07 to 8.8697876107285995e-07 seconds.
Warning: Simulation tolerance relaxed to achieve convergence from 8.8697876107285995e-07 to 8.8697876107385997e-07 seconds.
Warning: Simulation tolerance relaxed to achieve convergence from 8.8697876107385997e-07 to 8.8697876107486000e-07 seconds.
Warning: Simulation tolerance relaxed to achieve convergence from 8.8697876107486000e-07 to 8.8697876107586003e-07 seconds.
Warning: Simulation tolerance relaxed to achieve convergence from 8.8697876107586003e-07 to 8.8697876107686006e-07 seconds.
Warning: Simulation tolerance relaxed to achieve convergence from 8.8697876107686006e-07 to 8.8697876107786009e-07 seconds.
Warning: Simulation tolerance relaxed to achieve convergence from 8.8697876107786009e-07 to 8.8697876107886011e-07 seconds.
Warning: Simulation tolerance relaxed to achieve convergence from 8.8697876107886011e-07 to 8.8697876107986014e-07 seconds.
Warning: Simulation tolerance relaxed to achieve convergence from 8.8697876107986014e-07 to 8.8697876108086017e-07 seconds.
Warning: Simulation tolerance relaxed to achieve convergence from 8.8697876108086017e-07 to 8.8697876108186020e-07 seconds.
Warning: Simulation tolerance relaxed to achieve convergence from 8.8697876108186020e-07 to 8.8697876108286023e-07 seconds.
Warning: Simulation tolerance relaxed to achieve convergence from 8.8697876108286023e-07 to 8.8697876108386026e-07 seconds.
Warning: Simulation tolerance relaxed to achieve convergence from 8.8697876108386026e-07 to 8.8697876108486028e-07 seconds.
Warning: Simulation tolerance relaxed to achieve convergence from 8.8697876108486028e-07 to 8.8697876108586031e-07 seconds.
Warning: Simulation tolerance relaxed to achieve convergence from 8.8697876108586031e-07 to 8.8697876108686034e-07 seconds.
Warning: Simulation tolerance relaxed to achieve convergence from 8.8697876108686034e-07 to 8.8697876108786037e-07 seconds.
Warning: Simulation tolerance relaxed to achieve convergence from 8.8697876108786037e-07 to 8.8697876108886040e-07 seconds.
Warning: Simulation tolerance relaxed to achieve convergence from 8.8697876108886040e-07 to 8.8697876108986043e-07 seconds.
Warning: Simulation tolerance relaxed to achieve convergence from 8.8697876108986043e-07 to 8.8697876109086045e-07 seconds.
Warning: Simulation tolerance relaxed to achieve convergence from 8.8697876109086045e-07 to 8.8697876109186048e-07 seconds.
Warning: Simulation tolerance relaxed to achieve convergence from 8.8697876109186048e-07 to 8.8697876109286051e-07 seconds.
Warning: Simulation tolerance relaxed to achieve convergence from 8.8697876109286051e-07 to 8.8697876109386054e-07 seconds.
Warning: Simulation tolerance relaxed to achieve convergence from 8.8697876109386054e-07 to 8.8697876109486057e-07 seconds.
Warning: Simulation tolerance relaxed to achieve convergence from 8.8697876109486057e-07 to 8.8697876109586060e-07 seconds.
Warning: Simulation tolerance relaxed to achieve convergence from 8.8697876109586060e-07 to 8.8697876109686062e-07 seconds.
Warning: Simulation tolerance relaxed to achieve convergence from 8.8697876109686062e-07 to 8.8697876109786065e-07 seconds.
Warning: Simulation tolerance relaxed to achieve convergence from 8.8697876109786065e-07 to 8.8697876109886068e-07 seconds.
Warning: Simulation tolerance relaxed to achieve convergence from 8.8697876109886068e-07 to 8.8697876109986071e-07 seconds.
Warning: Simulation tolerance relaxed to achieve convergence from 8.8697876109986071e-07 to 8.8697876110086074e-07 seconds.
Warning: Simulation tolerance relaxed to achieve convergence from 8.8697876110086074e-07 to 8.8697876110186077e-07 seconds.
Warning: Simulation tolerance relaxed to achieve convergence from 8.8697876110186077e-07 to 8.8697876110286079e-07 seconds.
Warning: Simulation tolerance relaxed to achieve convergence from 8.8697876110286079e-07 to 8.8697876110386082e-07 seconds.
Warning: Simulation tolerance relaxed to achieve convergence from 8.8697876110386082e-07 to 8.8697876110486085e-07 seconds.
Warning: Simulation tolerance relaxed to achieve convergence from 8.8697876110486085e-07 to 8.8697876110586088e-07 seconds.
Warning: Simulation tolerance relaxed to achieve convergence from 8.8697876110586088e-07 to 8.8697876110686091e-07 seconds.
Warning: Simulation tolerance relaxed to achieve convergence from 8.8697876110686091e-07 to 8.8697876110786093e-07 seconds.
Warning: Simulation tolerance relaxed to achieve convergence from 8.8697876110786093e-07 to 8.8697876110886096e-07 seconds.
Warning: Simulation tolerance relaxed to achieve convergence from 8.8697876110886096e-07 to 8.8697876110986099e-07 seconds.
Warning: Simulation tolerance relaxed to achieve convergence from 8.8697876110986099e-07 to 8.8697876111086102e-07 seconds.
Warning: Simulation tolerance relaxed to achieve convergence from 8.8697876111086102e-07 to 8.8697876111186105e-07 seconds.
Warning: Simulation tolerance relaxed to achieve convergence from 8.8697876111186105e-07 to 8.8697876111286108e-07 seconds.
Warning: Simulation tolerance relaxed to achieve convergence from 8.8697876111286108e-07 to 8.8697876111386110e-07 seconds.
Warning: Simulation tolerance relaxed to achieve convergence from 8.8697876111386110e-07 to 8.8697876111486113e-07 seconds.
Warning: Simulation tolerance relaxed to achieve convergence from 8.8697876111486113e-07 to 8.8697876111586116e-07 seconds.
Warning: Simulation tolerance relaxed to achieve convergence from 8.8697876111586116e-07 to 8.8697876111686119e-07 seconds.
Warning: Simulation tolerance relaxed to achieve convergence from 8.8697876111686119e-07 to 8.8697876111786122e-07 seconds.
Warning: Simulation tolerance relaxed to achieve convergence from 8.8697876111786122e-07 to 8.8697876111886125e-07 seconds.
Warning: Simulation tolerance relaxed to achieve convergence from 8.8697876111886125e-07 to 8.8697876111986127e-07 seconds.
Warning: Simulation tolerance relaxed to achieve convergence from 8.8697876111986127e-07 to 8.8697876112086130e-07 seconds.
Warning: Simulation tolerance relaxed to achieve convergence from 8.8697876112086130e-07 to 8.8697876112186133e-07 seconds.
Warning: Simulation tolerance relaxed to achieve convergence from 8.8697876112186133e-07 to 8.8697876112286136e-07 seconds.
Warning: Simulation tolerance relaxed to achieve convergence from 8.8697876112286136e-07 to 8.8697876112386139e-07 seconds.
Warning: Simulation tolerance relaxed to achieve convergence from 8.8697876112386139e-07 to 8.8697876112486142e-07 seconds.
Warning: Simulation tolerance relaxed to achieve convergence from 8.8697876112486142e-07 to 8.8697876112586144e-07 seconds.
Warning: Simulation tolerance relaxed to achieve convergence from 8.8697876112586144e-07 to 8.8697876112686147e-07 seconds.
Warning: Simulation tolerance relaxed to achieve convergence from 8.8697876112686147e-07 to 8.8697876112786150e-07 seconds.
Warning: Simulation tolerance relaxed to achieve convergence from 8.8697876112786150e-07 to 8.8697876112886153e-07 seconds.
Warning: Simulation tolerance relaxed to achieve convergence from 8.8697876112886153e-07 to 8.8697876112986156e-07 seconds.
Warning: Simulation tolerance relaxed to achieve convergence from 8.8697876112986156e-07 to 8.8697876113086159e-07 seconds.
Warning: Simulation tolerance relaxed to achieve convergence from 8.8697876113086159e-07 to 8.8697876113186161e-07 seconds.
Warning: Simulation tolerance relaxed to achieve convergence from 8.8697876113186161e-07 to 8.8697876113286164e-07 seconds.
Warning: Simulation tolerance relaxed to achieve convergence from 8.8697876113286164e-07 to 8.8697876113386167e-07 seconds.
Warning: Simulation tolerance relaxed to achieve convergence from 8.8697876113386167e-07 to 8.8697876113486170e-07 seconds.
Warning: Simulation tolerance relaxed to achieve convergence from 8.8697876113486170e-07 to 8.8697876113586173e-07 seconds.
Warning: Simulation tolerance relaxed to achieve convergence from 8.8697876113586173e-07 to 8.8697876113686175e-07 seconds.
Warning: Simulation tolerance relaxed to achieve convergence from 8.8697876113686175e-07 to 8.8697876113786178e-07 seconds.
Warning: Simulation tolerance relaxed to achieve convergence from 8.8697876113786178e-07 to 8.8697876113886181e-07 seconds.
Warning: Simulation tolerance relaxed to achieve convergence from 8.8697876113886181e-07 to 8.8697876113986184e-07 seconds.
Warning: Simulation tolerance relaxed to achieve convergence from 8.8697876113986184e-07 to 8.8697876114086187e-07 seconds.
Warning: Simulation tolerance relaxed to achieve convergence from 8.8697876114086187e-07 to 8.8697876114186190e-07 seconds.
Warning: Simulation tolerance relaxed to achieve convergence from 8.8697876114186190e-07 to 8.8697876114286192e-07 seconds.
Warning: Simulation tolerance relaxed to achieve convergence from 8.8697876114286192e-07 to 8.8697876114386195e-07 seconds.
Warning: Simulation tolerance relaxed to achieve convergence from 8.8697876114386195e-07 to 8.8697876114486198e-07 seconds.
Warning: Simulation tolerance relaxed to achieve convergence from 8.8697876114486198e-07 to 8.8697876114586201e-07 seconds.
Warning: Simulation tolerance relaxed to achieve convergence from 8.8697876114586201e-07 to 8.8697876114686204e-07 seconds.
Warning: Simulation tolerance relaxed to achieve convergence from 8.8697876114686204e-07 to 8.8697876114786207e-07 seconds.
Warning: Simulation tolerance relaxed to achieve convergence from 8.8697876114786207e-07 to 8.8697876114886209e-07 seconds.
Warning: Simulation tolerance relaxed to achieve convergence from 8.8697876114886209e-07 to 8.8697876114986212e-07 seconds.
Warning: Simulation tolerance relaxed to achieve convergence from 8.8697876114986212e-07 to 8.8697876115086215e-07 seconds.
Warning: Simulation tolerance relaxed to achieve convergence from 8.8697876115086215e-07 to 8.8697876115186218e-07 seconds.
Warning: Simulation tolerance relaxed to achieve convergence from 8.8697876115186218e-07 to 8.8697876115286221e-07 seconds.
Warning: Simulation tolerance relaxed to achieve convergence from 8.8697876115286221e-07 to 8.8697876115386224e-07 seconds.
Warning: Simulation tolerance relaxed to achieve convergence from 8.8697876115386224e-07 to 8.8697876115486226e-07 seconds.
Warning: Simulation tolerance relaxed to achieve convergence from 8.8697876115486226e-07 to 8.8697876115586229e-07 seconds.
Warning: Simulation tolerance relaxed to achieve convergence from 8.8697876115586229e-07 to 8.8697876115686232e-07 seconds.
Warning: Simulation tolerance relaxed to achieve convergence from 8.8697876115686232e-07 to 8.8697876115786235e-07 seconds.
Warning: Simulation tolerance relaxed to achieve convergence from 8.8697876115786235e-07 to 8.8697876115886238e-07 seconds.
Warning: Simulation tolerance relaxed to achieve convergence from 8.8697876115886238e-07 to 8.8697876115986241e-07 seconds.
Warning: Simulation tolerance relaxed to achieve convergence from 8.8697876115986241e-07 to 8.8697876116086243e-07 seconds.
Warning: Simulation tolerance relaxed to achieve convergence from 8.8697876116086243e-07 to 8.8697876116186246e-07 seconds.
Warning: Simulation tolerance relaxed to achieve convergence from 8.8697876116186246e-07 to 8.8697876116286249e-07 seconds.
Warning: Simulation tolerance relaxed to achieve convergence from 8.8697876116286249e-07 to 8.8697876116386252e-07 seconds.
Warning: Simulation tolerance relaxed to achieve convergence from 8.8697876116386252e-07 to 8.8697876116486255e-07 seconds.
Warning: Simulation tolerance relaxed to achieve convergence from 8.8697876116486255e-07 to 8.8697876116486255e-07 seconds.
Total elapsed time: 8.988 seconds.

Simulation Failed: 

Total elapsed time: 8.988 seconds.

Files loaded:
C:\Users\Usuario\Documents\LTspice\1_LTC4370_Simulations\5_LTC4370_CurrentBalancing_Si7336ADP_ThirdParty\test2.net
C:\Users\Usuario\Documents\LTspice\1_LTC4370_Simulations\5_LTC4370_CurrentBalancing_Si7336ADP_ThirdParty\Si7336ADP_HS.txt
C:\Users\Usuario\AppData\Local\LTspice\lib\sub\LTC4370.sub

