LTspice 24.1.1 for Windows
Circuit: C:\Users\Usuario\Documents\LTspice\1_LTC4370_Simulations\5_LTC4370_CurrentBalancing_Si7336ADP_ThirdParty\test2.net
Start Time: Mon Oct 20 16:20:42 2025
solver = Normal
Maximum thread count: 8
tnom = 27
temp = 27
method = trap
Instance "m1:M1": Length shorter than recommended for a level 3 MOSFET.
Instance "m1:M2": Length shorter than recommended for a level 3 MOSFET.
Instance "m2:M1": Length shorter than recommended for a level 3 MOSFET.
Instance "m2:M2": Length shorter than recommended for a level 3 MOSFET.
Direct Newton iteration failed to find .op point.  (Use ".option noopiter" to skip.)
Starting Gmin stepping
Gmin = 10
Gmin = 1.07374
Gmin = 0.115292
Gmin = 0.0123794
Gmin = 0.00132923
Gmin = 0.000142725
Gmin = 1.5325e-05
Gmin = 1.6455e-06
Gmin = 1.76685e-07
Gmin = 1.89714e-08
Gmin = 2.03704e-09
Gmin = 2.18725e-10
Gmin = 2.34854e-11
Gmin = 2.52173e-12
Gmin = 2.70769e-13
Gmin = 0
Gmin stepping succeeded in finding the operating point.

Changing Tseed to 1e-08
Changing Tseed to 1e-10
Warning: Simulation tolerance relaxed to achieve convergence from 1.0459204554433676e-03 to 1.0459204554433776e-03 seconds.
Warning: Simulation tolerance relaxed to achieve convergence from 1.0459204554433776e-03 to 1.0459204554433875e-03 seconds.
Warning: Simulation tolerance relaxed to achieve convergence from 1.0459204554433875e-03 to 1.0459204554433975e-03 seconds.
Warning: Simulation tolerance relaxed to achieve convergence from 1.0459204554433975e-03 to 1.0459204554434075e-03 seconds.
Warning: Simulation tolerance relaxed to achieve convergence from 1.0459204554434075e-03 to 1.0459204554434175e-03 seconds.
Warning: Simulation tolerance relaxed to achieve convergence from 1.0459204554434175e-03 to 1.0459204554434274e-03 seconds.
Warning: Simulation tolerance relaxed to achieve convergence from 1.0459204554434274e-03 to 1.0459204554434374e-03 seconds.
Warning: Simulation tolerance relaxed to achieve convergence from 1.0459204554434374e-03 to 1.0459204554434474e-03 seconds.
Warning: Simulation tolerance relaxed to achieve convergence from 1.0459204554434474e-03 to 1.0459204554434573e-03 seconds.
Warning: Simulation tolerance relaxed to achieve convergence from 1.0459204554434573e-03 to 1.0459204554434673e-03 seconds.
Warning: Simulation tolerance relaxed to achieve convergence from 1.0459204554434673e-03 to 1.0459204554434773e-03 seconds.
Warning: Simulation tolerance relaxed to achieve convergence from 1.0459204554434773e-03 to 1.0459204554434873e-03 seconds.
Warning: Simulation tolerance relaxed to achieve convergence from 1.0459204554434873e-03 to 1.0459204554434972e-03 seconds.
Warning: Simulation tolerance relaxed to achieve convergence from 1.0459204554434972e-03 to 1.0459204554435072e-03 seconds.
Warning: Simulation tolerance relaxed to achieve convergence from 1.0459204554435072e-03 to 1.0459204554435172e-03 seconds.
Warning: Simulation tolerance relaxed to achieve convergence from 1.0459204554435172e-03 to 1.0459204554435272e-03 seconds.
Warning: Simulation tolerance relaxed to achieve convergence from 1.0459204554435272e-03 to 1.0459204554435371e-03 seconds.
Warning: Simulation tolerance relaxed to achieve convergence from 1.0459204554435371e-03 to 1.0459204554435471e-03 seconds.
Warning: Simulation tolerance relaxed to achieve convergence from 1.0459204554435471e-03 to 1.0459204554435571e-03 seconds.
Warning: Simulation tolerance relaxed to achieve convergence from 1.0459204554435571e-03 to 1.0459204554435671e-03 seconds.
Warning: Simulation tolerance relaxed to achieve convergence from 1.0459204554435671e-03 to 1.0459204554435770e-03 seconds.
Warning: Simulation tolerance relaxed to achieve convergence from 1.0459204554435770e-03 to 1.0459204554435870e-03 seconds.
Warning: Simulation tolerance relaxed to achieve convergence from 1.0459204554435870e-03 to 1.0459204554435970e-03 seconds.
Warning: Simulation tolerance relaxed to achieve convergence from 1.0459204554435970e-03 to 1.0459204554436070e-03 seconds.
Warning: Simulation tolerance relaxed to achieve convergence from 1.0459204554436070e-03 to 1.0459204554436169e-03 seconds.
Warning: Simulation tolerance relaxed to achieve convergence from 1.0459204554436169e-03 to 1.0459204554436269e-03 seconds.
Warning: Simulation tolerance relaxed to achieve convergence from 1.0459204554436269e-03 to 1.0459204554436369e-03 seconds.
Warning: Simulation tolerance relaxed to achieve convergence from 1.0459204554436369e-03 to 1.0459204554436469e-03 seconds.
Warning: Simulation tolerance relaxed to achieve convergence from 1.0459204554436469e-03 to 1.0459204554436568e-03 seconds.
Warning: Simulation tolerance relaxed to achieve convergence from 1.0459204554436568e-03 to 1.0459204554436668e-03 seconds.
Warning: Simulation tolerance relaxed to achieve convergence from 1.0459204554436668e-03 to 1.0459204554436768e-03 seconds.
Warning: Simulation tolerance relaxed to achieve convergence from 1.0459204554436967e-03 to 1.0459204554437067e-03 seconds.
Warning: Simulation tolerance relaxed to achieve convergence from 1.0459204554437067e-03 to 1.0459204554437167e-03 seconds.
Warning: Simulation tolerance relaxed to achieve convergence from 1.0459204554437366e-03 to 1.0459204554437466e-03 seconds.
Warning: Simulation tolerance relaxed to achieve convergence from 1.0459204554437466e-03 to 1.0459204554437566e-03 seconds.
Warning: Simulation tolerance relaxed to achieve convergence from 1.0459204554437566e-03 to 1.0459204554437666e-03 seconds.
Warning: Simulation tolerance relaxed to achieve convergence from 1.0459204554437666e-03 to 1.0459204554437765e-03 seconds.
Warning: Simulation tolerance relaxed to achieve convergence from 1.0459204554437765e-03 to 1.0459204554437865e-03 seconds.
Warning: Simulation tolerance relaxed to achieve convergence from 1.0459204554437865e-03 to 1.0459204554437965e-03 seconds.
Warning: Simulation tolerance relaxed to achieve convergence from 1.0459204554437965e-03 to 1.0459204554438065e-03 seconds.
Warning: Simulation tolerance relaxed to achieve convergence from 1.0459204554438464e-03 to 1.0459204554438563e-03 seconds.
Warning: Simulation tolerance relaxed to achieve convergence from 1.0459204554438563e-03 to 1.0459204554438663e-03 seconds.
Warning: Simulation tolerance relaxed to achieve convergence from 1.0459204554438663e-03 to 1.0459204554438763e-03 seconds.
Warning: Simulation tolerance relaxed to achieve convergence from 1.0459204554438763e-03 to 1.0459204554438863e-03 seconds.
Warning: Simulation tolerance relaxed to achieve convergence from 1.0459204554438863e-03 to 1.0459204554438962e-03 seconds.
Warning: Simulation tolerance relaxed to achieve convergence from 1.0459204554438962e-03 to 1.0459204554439062e-03 seconds.
Warning: Simulation tolerance relaxed to achieve convergence from 1.0459204554439062e-03 to 1.0459204554439162e-03 seconds.
Warning: Simulation tolerance relaxed to achieve convergence from 1.0459204554439162e-03 to 1.0459204554439262e-03 seconds.
Warning: Simulation tolerance relaxed to achieve convergence from 1.0459204554439262e-03 to 1.0459204554439361e-03 seconds.
Warning: Simulation tolerance relaxed to achieve convergence from 1.0459204554439361e-03 to 1.0459204554439461e-03 seconds.
Warning: Simulation tolerance relaxed to achieve convergence from 1.0459204554439860e-03 to 1.0459204554439960e-03 seconds.
Warning: Simulation tolerance relaxed to achieve convergence from 1.0459204554440359e-03 to 1.0459204554440459e-03 seconds.
Warning: Simulation tolerance relaxed to achieve convergence from 1.0459204554440758e-03 to 1.0459204554440858e-03 seconds.
Warning: Simulation tolerance relaxed to achieve convergence from 1.0459204554440858e-03 to 1.0459204554440957e-03 seconds.
Warning: Simulation tolerance relaxed to achieve convergence from 1.0459204554440957e-03 to 1.0459204554441057e-03 seconds.
Warning: Simulation tolerance relaxed to achieve convergence from 1.0459204554441057e-03 to 1.0459204554441157e-03 seconds.
Warning: Simulation tolerance relaxed to achieve convergence from 1.0459204554441157e-03 to 1.0459204554441257e-03 seconds.
Warning: Simulation tolerance relaxed to achieve convergence from 1.0459204554441257e-03 to 1.0459204554441356e-03 seconds.
Warning: Simulation tolerance relaxed to achieve convergence from 1.0459204554441356e-03 to 1.0459204554441456e-03 seconds.
Warning: Simulation tolerance relaxed to achieve convergence from 1.0459204554441456e-03 to 1.0459204554441556e-03 seconds.
Warning: Simulation tolerance relaxed to achieve convergence from 1.0459204554441955e-03 to 1.0459204554442054e-03 seconds.
Warning: Simulation tolerance relaxed to achieve convergence from 1.0459204554442054e-03 to 1.0459204554442154e-03 seconds.
Warning: Simulation tolerance relaxed to achieve convergence from 1.0459204554442354e-03 to 1.0459204554442453e-03 seconds.
Warning: Simulation tolerance relaxed to achieve convergence from 1.0459204554442453e-03 to 1.0459204554442553e-03 seconds.
Warning: Simulation tolerance relaxed to achieve convergence from 1.0459204554442553e-03 to 1.0459204554442653e-03 seconds.
Warning: Simulation tolerance relaxed to achieve convergence from 1.0459204554442653e-03 to 1.0459204554442753e-03 seconds.
Warning: Simulation tolerance relaxed to achieve convergence from 1.0459204554442753e-03 to 1.0459204554442852e-03 seconds.
Warning: Simulation tolerance relaxed to achieve convergence from 1.0459204554442852e-03 to 1.0459204554442952e-03 seconds.
Warning: Simulation tolerance relaxed to achieve convergence from 1.0459204554442952e-03 to 1.0459204554443052e-03 seconds.
Warning: Simulation tolerance relaxed to achieve convergence from 1.0459204554443251e-03 to 1.0459204554443351e-03 seconds.
Warning: Simulation tolerance relaxed to achieve convergence from 1.0459204554443351e-03 to 1.0459204554443451e-03 seconds.
Warning: Simulation tolerance relaxed to achieve convergence from 1.0459204554443451e-03 to 1.0459204554443551e-03 seconds.
Warning: Simulation tolerance relaxed to achieve convergence from 1.0459204554443551e-03 to 1.0459204554443650e-03 seconds.
Warning: Simulation tolerance relaxed to achieve convergence from 1.0459204554443650e-03 to 1.0459204554443750e-03 seconds.
Warning: Simulation tolerance relaxed to achieve convergence from 1.0459204554443750e-03 to 1.0459204554443850e-03 seconds.
Warning: Simulation tolerance relaxed to achieve convergence from 1.0459204554443850e-03 to 1.0459204554443950e-03 seconds.
Warning: Simulation tolerance relaxed to achieve convergence from 1.0459204554443950e-03 to 1.0459204554444049e-03 seconds.
Warning: Simulation tolerance relaxed to achieve convergence from 1.0459204554444049e-03 to 1.0459204554444149e-03 seconds.
Warning: Simulation tolerance relaxed to achieve convergence from 1.0459204554444149e-03 to 1.0459204554444249e-03 seconds.
Warning: Simulation tolerance relaxed to achieve convergence from 1.0459204554444448e-03 to 1.0459204554444548e-03 seconds.
Warning: Simulation tolerance relaxed to achieve convergence from 1.0459204554444548e-03 to 1.0459204554444648e-03 seconds.
Warning: Simulation tolerance relaxed to achieve convergence from 1.0459204554444648e-03 to 1.0459204554444748e-03 seconds.
Warning: Simulation tolerance relaxed to achieve convergence from 1.0459204554444748e-03 to 1.0459204554444847e-03 seconds.
Warning: Simulation tolerance relaxed to achieve convergence from 1.0459204554444847e-03 to 1.0459204554444947e-03 seconds.
Warning: Simulation tolerance relaxed to achieve convergence from 1.0459204554444947e-03 to 1.0459204554445047e-03 seconds.
Warning: Simulation tolerance relaxed to achieve convergence from 1.0459204554445047e-03 to 1.0459204554445147e-03 seconds.
Warning: Simulation tolerance relaxed to achieve convergence from 1.0459204554445147e-03 to 1.0459204554445246e-03 seconds.
Warning: Simulation tolerance relaxed to achieve convergence from 1.0459204554445246e-03 to 1.0459204554445346e-03 seconds.
Warning: Simulation tolerance relaxed to achieve convergence from 1.0459204554445346e-03 to 1.0459204554445446e-03 seconds.
Warning: Simulation tolerance relaxed to achieve convergence from 1.0459204554445446e-03 to 1.0459204554445546e-03 seconds.
Warning: Simulation tolerance relaxed to achieve convergence from 1.0459204554445546e-03 to 1.0459204554445645e-03 seconds.
Warning: Simulation tolerance relaxed to achieve convergence from 1.0459204554445645e-03 to 1.0459204554445745e-03 seconds.
Warning: Simulation tolerance relaxed to achieve convergence from 1.0459204554445945e-03 to 1.0459204554446044e-03 seconds.
Warning: Simulation tolerance relaxed to achieve convergence from 1.0459204554446044e-03 to 1.0459204554446144e-03 seconds.
Warning: Simulation tolerance relaxed to achieve convergence from 1.0459204554446144e-03 to 1.0459204554446244e-03 seconds.
Warning: Simulation tolerance relaxed to achieve convergence from 1.0459204554446443e-03 to 1.0459204554446543e-03 seconds.
Warning: Simulation tolerance relaxed to achieve convergence from 1.0459204554446543e-03 to 1.0459204554446643e-03 seconds.
Warning: Simulation tolerance relaxed to achieve convergence from 1.0459204554446643e-03 to 1.0459204554446743e-03 seconds.
Warning: Simulation tolerance relaxed to achieve convergence from 1.0459204554446743e-03 to 1.0459204554446842e-03 seconds.
Warning: Simulation tolerance relaxed to achieve convergence from 1.0459204554446842e-03 to 1.0459204554446942e-03 seconds.
Warning: Simulation tolerance relaxed to achieve convergence from 1.0459204554446942e-03 to 1.0459204554447042e-03 seconds.
Warning: Simulation tolerance relaxed to achieve convergence from 1.0459204554447042e-03 to 1.0459204554447142e-03 seconds.
Warning: Simulation tolerance relaxed to achieve convergence from 1.0459204554447142e-03 to 1.0459204554447241e-03 seconds.
Warning: Simulation tolerance relaxed to achieve convergence from 1.0459204554447241e-03 to 1.0459204554447341e-03 seconds.
Warning: Simulation tolerance relaxed to achieve convergence from 1.0459204554447341e-03 to 1.0459204554447441e-03 seconds.
Warning: Simulation tolerance relaxed to achieve convergence from 1.0459204554447441e-03 to 1.0459204554447541e-03 seconds.
Warning: Simulation tolerance relaxed to achieve convergence from 1.0459204554447541e-03 to 1.0459204554447640e-03 seconds.
Warning: Simulation tolerance relaxed to achieve convergence from 1.0459204554447640e-03 to 1.0459204554447740e-03 seconds.
Warning: Simulation tolerance relaxed to achieve convergence from 1.0459204554447740e-03 to 1.0459204554447840e-03 seconds.
Warning: Simulation tolerance relaxed to achieve convergence from 1.0459204554447840e-03 to 1.0459204554447940e-03 seconds.
Warning: Simulation tolerance relaxed to achieve convergence from 1.0459204554447940e-03 to 1.0459204554448039e-03 seconds.
Warning: Simulation tolerance relaxed to achieve convergence from 1.0459204554448039e-03 to 1.0459204554448139e-03 seconds.
Warning: Simulation tolerance relaxed to achieve convergence from 1.0459204554448139e-03 to 1.0459204554448239e-03 seconds.
Warning: Simulation tolerance relaxed to achieve convergence from 1.0459204554448239e-03 to 1.0459204554448339e-03 seconds.
Warning: Simulation tolerance relaxed to achieve convergence from 1.0459204554448339e-03 to 1.0459204554448438e-03 seconds.
Warning: Simulation tolerance relaxed to achieve convergence from 1.0459204554448438e-03 to 1.0459204554448538e-03 seconds.
Warning: Simulation tolerance relaxed to achieve convergence from 1.0459204554448538e-03 to 1.0459204554448638e-03 seconds.
Warning: Simulation tolerance relaxed to achieve convergence from 1.0459204554448638e-03 to 1.0459204554448738e-03 seconds.
Warning: Simulation tolerance relaxed to achieve convergence from 1.0459204554448738e-03 to 1.0459204554448837e-03 seconds.
Warning: Simulation tolerance relaxed to achieve convergence from 1.0459204554449037e-03 to 1.0459204554449136e-03 seconds.
Warning: Simulation tolerance relaxed to achieve convergence from 1.0459204554449136e-03 to 1.0459204554449236e-03 seconds.
Warning: Simulation tolerance relaxed to achieve convergence from 1.0459204554449236e-03 to 1.0459204554449336e-03 seconds.
Warning: Simulation tolerance relaxed to achieve convergence from 1.0459204554449336e-03 to 1.0459204554449436e-03 seconds.
Warning: Simulation tolerance relaxed to achieve convergence from 1.0459204554449436e-03 to 1.0459204554449535e-03 seconds.
Warning: Simulation tolerance relaxed to achieve convergence from 1.0459204554449535e-03 to 1.0459204554449635e-03 seconds.
Warning: Simulation tolerance relaxed to achieve convergence from 1.0459204554449635e-03 to 1.0459204554449735e-03 seconds.
Warning: Simulation tolerance relaxed to achieve convergence from 1.0459204554449735e-03 to 1.0459204554449835e-03 seconds.
Warning: Simulation tolerance relaxed to achieve convergence from 1.0459204554449835e-03 to 1.0459204554449934e-03 seconds.
Warning: Simulation tolerance relaxed to achieve convergence from 1.0459204554449934e-03 to 1.0459204554450034e-03 seconds.
Warning: Simulation tolerance relaxed to achieve convergence from 1.0459204554450034e-03 to 1.0459204554450134e-03 seconds.
Warning: Simulation tolerance relaxed to achieve convergence from 1.0459204554450134e-03 to 1.0459204554450234e-03 seconds.
Warning: Simulation tolerance relaxed to achieve convergence from 1.0459204554450234e-03 to 1.0459204554450333e-03 seconds.
Warning: Simulation tolerance relaxed to achieve convergence from 1.0459204554450333e-03 to 1.0459204554450433e-03 seconds.
Warning: Simulation tolerance relaxed to achieve convergence from 1.0459204554450433e-03 to 1.0459204554450533e-03 seconds.
Warning: Simulation tolerance relaxed to achieve convergence from 1.0459204554450533e-03 to 1.0459204554450633e-03 seconds.
Warning: Simulation tolerance relaxed to achieve convergence from 1.0459204554450633e-03 to 1.0459204554450732e-03 seconds.
Warning: Simulation tolerance relaxed to achieve convergence from 1.0459204554450732e-03 to 1.0459204554450832e-03 seconds.
Warning: Simulation tolerance relaxed to achieve convergence from 1.0459204554450832e-03 to 1.0459204554450932e-03 seconds.
Warning: Simulation tolerance relaxed to achieve convergence from 1.0459204554450932e-03 to 1.0459204554451032e-03 seconds.
Warning: Simulation tolerance relaxed to achieve convergence from 1.0459204554451032e-03 to 1.0459204554451131e-03 seconds.
Warning: Simulation tolerance relaxed to achieve convergence from 1.0459204554451131e-03 to 1.0459204554451231e-03 seconds.
Warning: Simulation tolerance relaxed to achieve convergence from 1.0459204554451231e-03 to 1.0459204554451331e-03 seconds.
Warning: Simulation tolerance relaxed to achieve convergence from 1.0459204554451331e-03 to 1.0459204554451431e-03 seconds.
Warning: Simulation tolerance relaxed to achieve convergence from 1.0459204554451431e-03 to 1.0459204554451530e-03 seconds.
Warning: Simulation tolerance relaxed to achieve convergence from 1.0459204554451530e-03 to 1.0459204554451630e-03 seconds.
Warning: Simulation tolerance relaxed to achieve convergence from 1.0459204554451630e-03 to 1.0459204554451730e-03 seconds.
Warning: Simulation tolerance relaxed to achieve convergence from 1.0459204554451730e-03 to 1.0459204554451830e-03 seconds.
Warning: Simulation tolerance relaxed to achieve convergence from 1.0459204554451830e-03 to 1.0459204554451929e-03 seconds.
Warning: Simulation tolerance relaxed to achieve convergence from 1.0459204554451929e-03 to 1.0459204554452029e-03 seconds.
Warning: Simulation tolerance relaxed to achieve convergence from 1.0459204554452029e-03 to 1.0459204554452129e-03 seconds.
Warning: Simulation tolerance relaxed to achieve convergence from 1.0459204554452129e-03 to 1.0459204554452229e-03 seconds.
Warning: Simulation tolerance relaxed to achieve convergence from 1.0459204554452229e-03 to 1.0459204554452328e-03 seconds.
Warning: Simulation tolerance relaxed to achieve convergence from 1.0459204554452328e-03 to 1.0459204554452428e-03 seconds.
Warning: Simulation tolerance relaxed to achieve convergence from 1.0459204554452428e-03 to 1.0459204554452528e-03 seconds.
Warning: Simulation tolerance relaxed to achieve convergence from 1.0459204554452528e-03 to 1.0459204554452628e-03 seconds.
Warning: Simulation tolerance relaxed to achieve convergence from 1.0459204554452628e-03 to 1.0459204554452727e-03 seconds.
Warning: Simulation tolerance relaxed to achieve convergence from 1.0459204554452727e-03 to 1.0459204554452827e-03 seconds.
Warning: Simulation tolerance relaxed to achieve convergence from 1.0459204554452827e-03 to 1.0459204554452927e-03 seconds.
Warning: Simulation tolerance relaxed to achieve convergence from 1.0459204554452927e-03 to 1.0459204554453027e-03 seconds.
Warning: Simulation tolerance relaxed to achieve convergence from 1.0459204554453027e-03 to 1.0459204554453126e-03 seconds.
Warning: Simulation tolerance relaxed to achieve convergence from 1.0459204554453126e-03 to 1.0459204554453226e-03 seconds.
Warning: Simulation tolerance relaxed to achieve convergence from 1.0459204554453226e-03 to 1.0459204554453326e-03 seconds.
Warning: Simulation tolerance relaxed to achieve convergence from 1.0459204554453326e-03 to 1.0459204554453426e-03 seconds.
Warning: Simulation tolerance relaxed to achieve convergence from 1.0459204554453426e-03 to 1.0459204554453525e-03 seconds.
Warning: Simulation tolerance relaxed to achieve convergence from 1.0459204554453525e-03 to 1.0459204554453625e-03 seconds.
Warning: Simulation tolerance relaxed to achieve convergence from 1.0459204554453625e-03 to 1.0459204554453725e-03 seconds.
Warning: Simulation tolerance relaxed to achieve convergence from 1.0459204554453725e-03 to 1.0459204554453825e-03 seconds.
Warning: Simulation tolerance relaxed to achieve convergence from 1.0459204554453825e-03 to 1.0459204554453924e-03 seconds.
Warning: Simulation tolerance relaxed to achieve convergence from 1.0459204554453924e-03 to 1.0459204554454024e-03 seconds.
Warning: Simulation tolerance relaxed to achieve convergence from 1.0459204554454024e-03 to 1.0459204554454124e-03 seconds.
Warning: Simulation tolerance relaxed to achieve convergence from 1.0459204554454124e-03 to 1.0459204554454224e-03 seconds.
Warning: Simulation tolerance relaxed to achieve convergence from 1.0459204554454224e-03 to 1.0459204554454323e-03 seconds.
Warning: Simulation tolerance relaxed to achieve convergence from 1.0459204554454323e-03 to 1.0459204554454423e-03 seconds.
Warning: Simulation tolerance relaxed to achieve convergence from 1.0459204554454423e-03 to 1.0459204554454523e-03 seconds.
Warning: Simulation tolerance relaxed to achieve convergence from 1.0459204554454523e-03 to 1.0459204554454623e-03 seconds.
Warning: Simulation tolerance relaxed to achieve convergence from 1.0459204554454623e-03 to 1.0459204554454722e-03 seconds.
Warning: Simulation tolerance relaxed to achieve convergence from 1.0459204554454722e-03 to 1.0459204554454822e-03 seconds.
Warning: Simulation tolerance relaxed to achieve convergence from 1.0459204554455022e-03 to 1.0459204554455121e-03 seconds.
Warning: Simulation tolerance relaxed to achieve convergence from 1.0459204554455121e-03 to 1.0459204554455221e-03 seconds.
Warning: Simulation tolerance relaxed to achieve convergence from 1.0459204554455221e-03 to 1.0459204554455321e-03 seconds.
Warning: Simulation tolerance relaxed to achieve convergence from 1.0459204554455321e-03 to 1.0459204554455421e-03 seconds.
Warning: Simulation tolerance relaxed to achieve convergence from 1.0459204554455421e-03 to 1.0459204554455520e-03 seconds.
Warning: Simulation tolerance relaxed to achieve convergence from 1.0459204554455520e-03 to 1.0459204554455620e-03 seconds.
Warning: Simulation tolerance relaxed to achieve convergence from 1.0459204554455620e-03 to 1.0459204554455720e-03 seconds.
Warning: Simulation tolerance relaxed to achieve convergence from 1.0459204554455720e-03 to 1.0459204554455820e-03 seconds.
Warning: Simulation tolerance relaxed to achieve convergence from 1.0459204554455820e-03 to 1.0459204554455919e-03 seconds.
Warning: Simulation tolerance relaxed to achieve convergence from 1.0459204554455919e-03 to 1.0459204554456019e-03 seconds.
Warning: Simulation tolerance relaxed to achieve convergence from 1.0459204554456019e-03 to 1.0459204554456119e-03 seconds.
Warning: Simulation tolerance relaxed to achieve convergence from 1.0459204554456119e-03 to 1.0459204554456219e-03 seconds.
Warning: Simulation tolerance relaxed to achieve convergence from 1.0459204554456219e-03 to 1.0459204554456318e-03 seconds.
Warning: Simulation tolerance relaxed to achieve convergence from 1.0459204554456318e-03 to 1.0459204554456418e-03 seconds.
Warning: Simulation tolerance relaxed to achieve convergence from 1.0459204554456418e-03 to 1.0459204554456518e-03 seconds.
Warning: Simulation tolerance relaxed to achieve convergence from 1.0459204554456518e-03 to 1.0459204554456617e-03 seconds.
Warning: Simulation tolerance relaxed to achieve convergence from 1.0459204554456617e-03 to 1.0459204554456717e-03 seconds.
Warning: Simulation tolerance relaxed to achieve convergence from 1.0459204554456717e-03 to 1.0459204554456817e-03 seconds.
Warning: Simulation tolerance relaxed to achieve convergence from 1.0459204554456817e-03 to 1.0459204554456917e-03 seconds.
Warning: Simulation tolerance relaxed to achieve convergence from 1.0459204554457116e-03 to 1.0459204554457216e-03 seconds.
Warning: Simulation tolerance relaxed to achieve convergence from 1.0459204554457216e-03 to 1.0459204554457316e-03 seconds.
Warning: Simulation tolerance relaxed to achieve convergence from 1.0459204554457316e-03 to 1.0459204554457415e-03 seconds.
Warning: Simulation tolerance relaxed to achieve convergence from 1.0459204554457415e-03 to 1.0459204554457515e-03 seconds.
Warning: Simulation tolerance relaxed to achieve convergence from 1.0459204554457515e-03 to 1.0459204554457615e-03 seconds.
Warning: Simulation tolerance relaxed to achieve convergence from 1.0459204554457615e-03 to 1.0459204554457715e-03 seconds.
Warning: Simulation tolerance relaxed to achieve convergence from 1.0459204554458114e-03 to 1.0459204554458213e-03 seconds.
Warning: Simulation tolerance relaxed to achieve convergence from 1.0459204554458213e-03 to 1.0459204554458313e-03 seconds.
Warning: Simulation tolerance relaxed to achieve convergence from 1.0459204554458313e-03 to 1.0459204554458413e-03 seconds.
Warning: Simulation tolerance relaxed to achieve convergence from 1.0459204554458413e-03 to 1.0459204554458513e-03 seconds.
Warning: Simulation tolerance relaxed to achieve convergence from 1.0459204554458513e-03 to 1.0459204554458612e-03 seconds.
Warning: Simulation tolerance relaxed to achieve convergence from 1.0459204554458612e-03 to 1.0459204554458712e-03 seconds.
Warning: Simulation tolerance relaxed to achieve convergence from 1.0459204554458712e-03 to 1.0459204554458812e-03 seconds.
Warning: Simulation tolerance relaxed to achieve convergence from 1.0459204554458812e-03 to 1.0459204554458912e-03 seconds.
Warning: Simulation tolerance relaxed to achieve convergence from 1.0459204554458912e-03 to 1.0459204554459011e-03 seconds.
Warning: Simulation tolerance relaxed to achieve convergence from 1.0459204554459011e-03 to 1.0459204554459111e-03 seconds.
Warning: Simulation tolerance relaxed to achieve convergence from 1.0459204554459111e-03 to 1.0459204554459211e-03 seconds.
Warning: Simulation tolerance relaxed to achieve convergence from 1.0459204554459211e-03 to 1.0459204554459311e-03 seconds.
Warning: Simulation tolerance relaxed to achieve convergence from 1.0459204554459311e-03 to 1.0459204554459410e-03 seconds.
Warning: Simulation tolerance relaxed to achieve convergence from 1.0459204554459410e-03 to 1.0459204554459510e-03 seconds.
Warning: Simulation tolerance relaxed to achieve convergence from 1.0459204554459510e-03 to 1.0459204554459610e-03 seconds.
Warning: Simulation tolerance relaxed to achieve convergence from 1.0459204554459610e-03 to 1.0459204554459710e-03 seconds.
Warning: Simulation tolerance relaxed to achieve convergence from 1.0459204554459710e-03 to 1.0459204554459809e-03 seconds.
Warning: Simulation tolerance relaxed to achieve convergence from 1.0459204554459809e-03 to 1.0459204554459909e-03 seconds.
Warning: Simulation tolerance relaxed to achieve convergence from 1.0459204554459909e-03 to 1.0459204554460009e-03 seconds.
Warning: Simulation tolerance relaxed to achieve convergence from 1.0459204554460009e-03 to 1.0459204554460109e-03 seconds.
Warning: Simulation tolerance relaxed to achieve convergence from 1.0459204554460109e-03 to 1.0459204554460208e-03 seconds.
Warning: Simulation tolerance relaxed to achieve convergence from 1.0459204554460208e-03 to 1.0459204554460308e-03 seconds.
Warning: Simulation tolerance relaxed to achieve convergence from 1.0459204554460308e-03 to 1.0459204554460408e-03 seconds.
Warning: Simulation tolerance relaxed to achieve convergence from 1.0459204554460408e-03 to 1.0459204554460508e-03 seconds.
Warning: Simulation tolerance relaxed to achieve convergence from 1.0459204554460508e-03 to 1.0459204554460607e-03 seconds.
Warning: Simulation tolerance relaxed to achieve convergence from 1.0459204554460807e-03 to 1.0459204554460907e-03 seconds.
Warning: Simulation tolerance relaxed to achieve convergence from 1.0459204554460907e-03 to 1.0459204554461006e-03 seconds.
Warning: Simulation tolerance relaxed to achieve convergence from 1.0459204554461006e-03 to 1.0459204554461106e-03 seconds.
Warning: Simulation tolerance relaxed to achieve convergence from 1.0459204554461106e-03 to 1.0459204554461206e-03 seconds.
Warning: Simulation tolerance relaxed to achieve convergence from 1.0459204554461405e-03 to 1.0459204554461505e-03 seconds.
Warning: Simulation tolerance relaxed to achieve convergence from 1.0459204554461505e-03 to 1.0459204554461605e-03 seconds.
Warning: Simulation tolerance relaxed to achieve convergence from 1.0459204554461605e-03 to 1.0459204554461705e-03 seconds.
Warning: Simulation tolerance relaxed to achieve convergence from 1.0459204554461705e-03 to 1.0459204554461804e-03 seconds.
Warning: Simulation tolerance relaxed to achieve convergence from 1.0459204554461804e-03 to 1.0459204554461904e-03 seconds.
Warning: Simulation tolerance relaxed to achieve convergence from 1.0459204554461904e-03 to 1.0459204554462004e-03 seconds.
Warning: Simulation tolerance relaxed to achieve convergence from 1.0459204554462004e-03 to 1.0459204554462104e-03 seconds.
Warning: Simulation tolerance relaxed to achieve convergence from 1.0459204554462104e-03 to 1.0459204554462203e-03 seconds.
Warning: Simulation tolerance relaxed to achieve convergence from 1.0459204554462203e-03 to 1.0459204554462303e-03 seconds.
Warning: Simulation tolerance relaxed to achieve convergence from 1.0459204554462303e-03 to 1.0459204554462403e-03 seconds.
Warning: Simulation tolerance relaxed to achieve convergence from 1.0459204554462602e-03 to 1.0459204554462702e-03 seconds.
Warning: Simulation tolerance relaxed to achieve convergence from 1.0459204554462702e-03 to 1.0459204554462802e-03 seconds.
Warning: Simulation tolerance relaxed to achieve convergence from 1.0459204554462802e-03 to 1.0459204554462902e-03 seconds.
Warning: Simulation tolerance relaxed to achieve convergence from 1.0459204554463101e-03 to 1.0459204554463201e-03 seconds.
Warning: Simulation tolerance relaxed to achieve convergence from 1.0459204554463201e-03 to 1.0459204554463301e-03 seconds.
Warning: Simulation tolerance relaxed to achieve convergence from 1.0459204554463500e-03 to 1.0459204554463600e-03 seconds.
Warning: Simulation tolerance relaxed to achieve convergence from 1.0459204554463799e-03 to 1.0459204554463899e-03 seconds.
Warning: Simulation tolerance relaxed to achieve convergence from 1.0459204554463899e-03 to 1.0459204554463999e-03 seconds.
Warning: Simulation tolerance relaxed to achieve convergence from 1.0459204554464198e-03 to 1.0459204554464298e-03 seconds.
Warning: Simulation tolerance relaxed to achieve convergence from 1.0459204554464298e-03 to 1.0459204554464398e-03 seconds.
Warning: Simulation tolerance relaxed to achieve convergence from 1.0459204554464597e-03 to 1.0459204554464697e-03 seconds.
Warning: Simulation tolerance relaxed to achieve convergence from 1.0459204554464896e-03 to 1.0459204554464996e-03 seconds.
Warning: Simulation tolerance relaxed to achieve convergence from 1.0459204554464996e-03 to 1.0459204554465096e-03 seconds.
Warning: Simulation tolerance relaxed to achieve convergence from 1.0459204554465096e-03 to 1.0459204554465196e-03 seconds.
Warning: Simulation tolerance relaxed to achieve convergence from 1.0459204554465196e-03 to 1.0459204554465295e-03 seconds.
Warning: Simulation tolerance relaxed to achieve convergence from 1.0459204554465295e-03 to 1.0459204554465395e-03 seconds.
Warning: Simulation tolerance relaxed to achieve convergence from 1.0459204554465395e-03 to 1.0459204554465495e-03 seconds.
Warning: Simulation tolerance relaxed to achieve convergence from 1.0459204554465495e-03 to 1.0459204554465595e-03 seconds.
Warning: Simulation tolerance relaxed to achieve convergence from 1.0459204554465595e-03 to 1.0459204554465694e-03 seconds.
Warning: Simulation tolerance relaxed to achieve convergence from 1.0459204554465694e-03 to 1.0459204554465794e-03 seconds.
Warning: Simulation tolerance relaxed to achieve convergence from 1.0459204554465794e-03 to 1.0459204554465894e-03 seconds.
Warning: Simulation tolerance relaxed to achieve convergence from 1.0459204554465894e-03 to 1.0459204554465994e-03 seconds.
Warning: Simulation tolerance relaxed to achieve convergence from 1.0459204554465994e-03 to 1.0459204554466093e-03 seconds.
Warning: Simulation tolerance relaxed to achieve convergence from 1.0459204554466093e-03 to 1.0459204554466193e-03 seconds.
Warning: Simulation tolerance relaxed to achieve convergence from 1.0459204554466193e-03 to 1.0459204554466293e-03 seconds.
Warning: Simulation tolerance relaxed to achieve convergence from 1.0459204554466293e-03 to 1.0459204554466393e-03 seconds.
Warning: Simulation tolerance relaxed to achieve convergence from 1.0459204554466393e-03 to 1.0459204554466492e-03 seconds.
Warning: Simulation tolerance relaxed to achieve convergence from 1.0459204554466692e-03 to 1.0459204554466792e-03 seconds.
Warning: Simulation tolerance relaxed to achieve convergence from 1.0459204554466792e-03 to 1.0459204554466891e-03 seconds.
Warning: Simulation tolerance relaxed to achieve convergence from 1.0459204554466891e-03 to 1.0459204554466991e-03 seconds.
Warning: Simulation tolerance relaxed to achieve convergence from 1.0459204554467191e-03 to 1.0459204554467290e-03 seconds.
Warning: Simulation tolerance relaxed to achieve convergence from 1.0459204554467290e-03 to 1.0459204554467390e-03 seconds.
Warning: Simulation tolerance relaxed to achieve convergence from 1.0459204554467390e-03 to 1.0459204554467490e-03 seconds.
Warning: Simulation tolerance relaxed to achieve convergence from 1.0459204554467490e-03 to 1.0459204554467590e-03 seconds.
Warning: Simulation tolerance relaxed to achieve convergence from 1.0459204554467590e-03 to 1.0459204554467689e-03 seconds.
Warning: Simulation tolerance relaxed to achieve convergence from 1.0459204554467689e-03 to 1.0459204554467789e-03 seconds.
Warning: Simulation tolerance relaxed to achieve convergence from 1.0459204554467789e-03 to 1.0459204554467889e-03 seconds.
Warning: Simulation tolerance relaxed to achieve convergence from 1.0459204554467889e-03 to 1.0459204554467989e-03 seconds.
Warning: Simulation tolerance relaxed to achieve convergence from 1.0459204554467989e-03 to 1.0459204554468088e-03 seconds.
Warning: Simulation tolerance relaxed to achieve convergence from 1.0459204554468088e-03 to 1.0459204554468188e-03 seconds.
Warning: Simulation tolerance relaxed to achieve convergence from 1.0459204554468188e-03 to 1.0459204554468288e-03 seconds.
Warning: Simulation tolerance relaxed to achieve convergence from 1.0459204554468288e-03 to 1.0459204554468388e-03 seconds.
Warning: Simulation tolerance relaxed to achieve convergence from 1.0459204554468388e-03 to 1.0459204554468487e-03 seconds.
Warning: Simulation tolerance relaxed to achieve convergence from 1.0459204554468487e-03 to 1.0459204554468587e-03 seconds.
Warning: Simulation tolerance relaxed to achieve convergence from 1.0459204554468587e-03 to 1.0459204554468687e-03 seconds.
Warning: Simulation tolerance relaxed to achieve convergence from 1.0459204554468687e-03 to 1.0459204554468787e-03 seconds.
Warning: Simulation tolerance relaxed to achieve convergence from 1.0459204554468787e-03 to 1.0459204554468886e-03 seconds.
Warning: Simulation tolerance relaxed to achieve convergence from 1.0459204554468886e-03 to 1.0459204554468986e-03 seconds.
Warning: Simulation tolerance relaxed to achieve convergence from 1.0459204554468986e-03 to 1.0459204554469086e-03 seconds.
Warning: Simulation tolerance relaxed to achieve convergence from 1.0459204554469086e-03 to 1.0459204554469186e-03 seconds.
Warning: Simulation tolerance relaxed to achieve convergence from 1.0459204554469385e-03 to 1.0459204554469485e-03 seconds.
Warning: Simulation tolerance relaxed to achieve convergence from 1.0459204554469485e-03 to 1.0459204554469585e-03 seconds.
Warning: Simulation tolerance relaxed to achieve convergence from 1.0459204554469585e-03 to 1.0459204554469684e-03 seconds.
Warning: Simulation tolerance relaxed to achieve convergence from 1.0459204554469684e-03 to 1.0459204554469784e-03 seconds.
Warning: Simulation tolerance relaxed to achieve convergence from 1.0459204554469784e-03 to 1.0459204554469884e-03 seconds.
Warning: Simulation tolerance relaxed to achieve convergence from 1.0459204554469884e-03 to 1.0459204554469984e-03 seconds.
Warning: Simulation tolerance relaxed to achieve convergence from 1.0459204554469984e-03 to 1.0459204554470083e-03 seconds.
Warning: Simulation tolerance relaxed to achieve convergence from 1.0459204554470083e-03 to 1.0459204554470183e-03 seconds.
Warning: Simulation tolerance relaxed to achieve convergence from 1.0459204554470183e-03 to 1.0459204554470283e-03 seconds.
Warning: Simulation tolerance relaxed to achieve convergence from 1.0459204554470283e-03 to 1.0459204554470383e-03 seconds.
Warning: Simulation tolerance relaxed to achieve convergence from 1.0459204554470582e-03 to 1.0459204554470682e-03 seconds.
Warning: Simulation tolerance relaxed to achieve convergence from 1.0459204554471081e-03 to 1.0459204554471180e-03 seconds.
Warning: Simulation tolerance relaxed to achieve convergence from 1.0459204554471180e-03 to 1.0459204554471280e-03 seconds.
Warning: Simulation tolerance relaxed to achieve convergence from 1.0459204554471280e-03 to 1.0459204554471380e-03 seconds.
Warning: Simulation tolerance relaxed to achieve convergence from 1.0459204554471380e-03 to 1.0459204554471480e-03 seconds.
Warning: Simulation tolerance relaxed to achieve convergence from 1.0459204554471879e-03 to 1.0459204554471978e-03 seconds.
Warning: Simulation tolerance relaxed to achieve convergence from 1.0459204554471978e-03 to 1.0459204554472078e-03 seconds.
Warning: Simulation tolerance relaxed to achieve convergence from 1.0459204554472078e-03 to 1.0459204554472178e-03 seconds.
Warning: Simulation tolerance relaxed to achieve convergence from 1.0459204554472178e-03 to 1.0459204554472278e-03 seconds.
Warning: Simulation tolerance relaxed to achieve convergence from 1.0459204554472278e-03 to 1.0459204554472377e-03 seconds.
Warning: Simulation tolerance relaxed to achieve convergence from 1.0459204554472377e-03 to 1.0459204554472477e-03 seconds.
Warning: Simulation tolerance relaxed to achieve convergence from 1.0459204554472477e-03 to 1.0459204554472577e-03 seconds.
Warning: Simulation tolerance relaxed to achieve convergence from 1.0459204554472577e-03 to 1.0459204554472677e-03 seconds.
Warning: Simulation tolerance relaxed to achieve convergence from 1.0459204554472677e-03 to 1.0459204554472776e-03 seconds.
Warning: Simulation tolerance relaxed to achieve convergence from 1.0459204554472776e-03 to 1.0459204554472876e-03 seconds.
Warning: Simulation tolerance relaxed to achieve convergence from 1.0459204554472876e-03 to 1.0459204554472976e-03 seconds.
Warning: Simulation tolerance relaxed to achieve convergence from 1.0459204554472976e-03 to 1.0459204554473076e-03 seconds.
Warning: Simulation tolerance relaxed to achieve convergence from 1.0459204554473076e-03 to 1.0459204554473175e-03 seconds.
Warning: Simulation tolerance relaxed to achieve convergence from 1.0459204554473175e-03 to 1.0459204554473275e-03 seconds.
Warning: Simulation tolerance relaxed to achieve convergence from 1.0459204554473275e-03 to 1.0459204554473375e-03 seconds.
Warning: Simulation tolerance relaxed to achieve convergence from 1.0459204554473375e-03 to 1.0459204554473475e-03 seconds.
Warning: Simulation tolerance relaxed to achieve convergence from 1.0459204554473475e-03 to 1.0459204554473574e-03 seconds.
Warning: Simulation tolerance relaxed to achieve convergence from 1.0459204554473574e-03 to 1.0459204554473674e-03 seconds.
Warning: Simulation tolerance relaxed to achieve convergence from 1.0459204554473674e-03 to 1.0459204554473774e-03 seconds.
Warning: Simulation tolerance relaxed to achieve convergence from 1.0459204554473774e-03 to 1.0459204554473874e-03 seconds.
Warning: Simulation tolerance relaxed to achieve convergence from 1.0459204554473874e-03 to 1.0459204554473973e-03 seconds.
Warning: Simulation tolerance relaxed to achieve convergence from 1.0459204554473973e-03 to 1.0459204554474073e-03 seconds.
Warning: Simulation tolerance relaxed to achieve convergence from 1.0459204554474073e-03 to 1.0459204554474173e-03 seconds.
Warning: Simulation tolerance relaxed to achieve convergence from 1.0459204554474173e-03 to 1.0459204554474273e-03 seconds.
Warning: Simulation tolerance relaxed to achieve convergence from 1.0459204554474273e-03 to 1.0459204554474372e-03 seconds.
Warning: Simulation tolerance relaxed to achieve convergence from 1.0459204554474372e-03 to 1.0459204554474472e-03 seconds.
Warning: Simulation tolerance relaxed to achieve convergence from 1.0459204554474472e-03 to 1.0459204554474572e-03 seconds.
Warning: Simulation tolerance relaxed to achieve convergence from 1.0459204554474572e-03 to 1.0459204554474672e-03 seconds.
Warning: Simulation tolerance relaxed to achieve convergence from 1.0459204554474672e-03 to 1.0459204554474771e-03 seconds.
Warning: Simulation tolerance relaxed to achieve convergence from 1.0459204554474771e-03 to 1.0459204554474871e-03 seconds.
Warning: Simulation tolerance relaxed to achieve convergence from 1.0459204554474871e-03 to 1.0459204554474971e-03 seconds.
Warning: Simulation tolerance relaxed to achieve convergence from 1.0459204554474971e-03 to 1.0459204554475071e-03 seconds.
Warning: Simulation tolerance relaxed to achieve convergence from 1.0459204554475071e-03 to 1.0459204554475170e-03 seconds.
Warning: Simulation tolerance relaxed to achieve convergence from 1.0459204554475170e-03 to 1.0459204554475270e-03 seconds.
Warning: Simulation tolerance relaxed to achieve convergence from 1.0459204554475270e-03 to 1.0459204554475370e-03 seconds.
Warning: Simulation tolerance relaxed to achieve convergence from 1.0459204554475370e-03 to 1.0459204554475470e-03 seconds.
Warning: Simulation tolerance relaxed to achieve convergence from 1.0459204554475470e-03 to 1.0459204554475569e-03 seconds.
Warning: Simulation tolerance relaxed to achieve convergence from 1.0459204554475769e-03 to 1.0459204554475869e-03 seconds.
Warning: Simulation tolerance relaxed to achieve convergence from 1.0459204554475869e-03 to 1.0459204554475968e-03 seconds.
Warning: Simulation tolerance relaxed to achieve convergence from 1.0459204554475968e-03 to 1.0459204554476068e-03 seconds.
Warning: Simulation tolerance relaxed to achieve convergence from 1.0459204554476068e-03 to 1.0459204554476168e-03 seconds.
Warning: Simulation tolerance relaxed to achieve convergence from 1.0459204554476168e-03 to 1.0459204554476268e-03 seconds.
Warning: Simulation tolerance relaxed to achieve convergence from 1.0459204554476268e-03 to 1.0459204554476367e-03 seconds.
Warning: Simulation tolerance relaxed to achieve convergence from 1.0459204554476367e-03 to 1.0459204554476467e-03 seconds.
Warning: Simulation tolerance relaxed to achieve convergence from 1.0459204554476467e-03 to 1.0459204554476567e-03 seconds.
Warning: Simulation tolerance relaxed to achieve convergence from 1.0459204554476766e-03 to 1.0459204554476866e-03 seconds.
Warning: Simulation tolerance relaxed to achieve convergence from 1.0459204554476866e-03 to 1.0459204554476966e-03 seconds.
Warning: Simulation tolerance relaxed to achieve convergence from 1.0459204554476966e-03 to 1.0459204554477066e-03 seconds.
Warning: Simulation tolerance relaxed to achieve convergence from 1.0459204554477066e-03 to 1.0459204554477165e-03 seconds.
Warning: Simulation tolerance relaxed to achieve convergence from 1.0459204554477165e-03 to 1.0459204554477265e-03 seconds.
Warning: Simulation tolerance relaxed to achieve convergence from 1.0459204554477265e-03 to 1.0459204554477365e-03 seconds.
Warning: Simulation tolerance relaxed to achieve convergence from 1.0459204554477365e-03 to 1.0459204554477465e-03 seconds.
Warning: Simulation tolerance relaxed to achieve convergence from 1.0459204554477465e-03 to 1.0459204554477564e-03 seconds.
Warning: Simulation tolerance relaxed to achieve convergence from 1.0459204554477564e-03 to 1.0459204554477664e-03 seconds.
Warning: Simulation tolerance relaxed to achieve convergence from 1.0459204554477664e-03 to 1.0459204554477764e-03 seconds.
Warning: Simulation tolerance relaxed to achieve convergence from 1.0459204554477764e-03 to 1.0459204554477864e-03 seconds.
Warning: Simulation tolerance relaxed to achieve convergence from 1.0459204554477864e-03 to 1.0459204554477963e-03 seconds.
Warning: Simulation tolerance relaxed to achieve convergence from 1.0459204554477963e-03 to 1.0459204554478063e-03 seconds.
Warning: Simulation tolerance relaxed to achieve convergence from 1.0459204554478063e-03 to 1.0459204554478163e-03 seconds.
Warning: Simulation tolerance relaxed to achieve convergence from 1.0459204554478163e-03 to 1.0459204554478263e-03 seconds.
Warning: Simulation tolerance relaxed to achieve convergence from 1.0459204554478263e-03 to 1.0459204554478362e-03 seconds.
Warning: Simulation tolerance relaxed to achieve convergence from 1.0459204554478362e-03 to 1.0459204554478462e-03 seconds.
Warning: Simulation tolerance relaxed to achieve convergence from 1.0459204554478462e-03 to 1.0459204554478562e-03 seconds.
Warning: Simulation tolerance relaxed to achieve convergence from 1.0459204554478562e-03 to 1.0459204554478661e-03 seconds.
Warning: Simulation tolerance relaxed to achieve convergence from 1.0459204554478661e-03 to 1.0459204554478761e-03 seconds.
Warning: Simulation tolerance relaxed to achieve convergence from 1.0459204554478761e-03 to 1.0459204554478861e-03 seconds.
Warning: Simulation tolerance relaxed to achieve convergence from 1.0459204554478861e-03 to 1.0459204554478961e-03 seconds.
Warning: Simulation tolerance relaxed to achieve convergence from 1.0459204554478961e-03 to 1.0459204554479060e-03 seconds.
Warning: Simulation tolerance relaxed to achieve convergence from 1.0459204554479060e-03 to 1.0459204554479160e-03 seconds.
Warning: Simulation tolerance relaxed to achieve convergence from 1.0459204554479160e-03 to 1.0459204554479260e-03 seconds.
Warning: Simulation tolerance relaxed to achieve convergence from 1.0459204554479260e-03 to 1.0459204554479360e-03 seconds.
Warning: Simulation tolerance relaxed to achieve convergence from 1.0459204554479360e-03 to 1.0459204554479459e-03 seconds.
Warning: Simulation tolerance relaxed to achieve convergence from 1.0459204554479459e-03 to 1.0459204554479559e-03 seconds.
Warning: Simulation tolerance relaxed to achieve convergence from 1.0459204554479559e-03 to 1.0459204554479659e-03 seconds.
Warning: Simulation tolerance relaxed to achieve convergence from 1.0459204554479659e-03 to 1.0459204554479759e-03 seconds.
Warning: Simulation tolerance relaxed to achieve convergence from 1.0459204554479759e-03 to 1.0459204554479858e-03 seconds.
Warning: Simulation tolerance relaxed to achieve convergence from 1.0459204554479858e-03 to 1.0459204554479958e-03 seconds.
Warning: Simulation tolerance relaxed to achieve convergence from 1.0459204554479958e-03 to 1.0459204554480058e-03 seconds.
Warning: Simulation tolerance relaxed to achieve convergence from 1.0459204554480058e-03 to 1.0459204554480158e-03 seconds.
Warning: Simulation tolerance relaxed to achieve convergence from 1.0459204554480158e-03 to 1.0459204554480257e-03 seconds.
Warning: Simulation tolerance relaxed to achieve convergence from 1.0459204554480257e-03 to 1.0459204554480357e-03 seconds.
Warning: Simulation tolerance relaxed to achieve convergence from 1.0459204554480357e-03 to 1.0459204554480457e-03 seconds.
Warning: Simulation tolerance relaxed to achieve convergence from 1.0459204554480457e-03 to 1.0459204554480557e-03 seconds.
Warning: Simulation tolerance relaxed to achieve convergence from 1.0459204554480557e-03 to 1.0459204554480656e-03 seconds.
Warning: Simulation tolerance relaxed to achieve convergence from 1.0459204554480656e-03 to 1.0459204554480756e-03 seconds.
Warning: Simulation tolerance relaxed to achieve convergence from 1.0459204554480756e-03 to 1.0459204554480856e-03 seconds.
Warning: Simulation tolerance relaxed to achieve convergence from 1.0459204554480856e-03 to 1.0459204554480956e-03 seconds.
Warning: Simulation tolerance relaxed to achieve convergence from 1.0459204554481155e-03 to 1.0459204554481255e-03 seconds.
Warning: Simulation tolerance relaxed to achieve convergence from 1.0459204554481255e-03 to 1.0459204554481355e-03 seconds.
Warning: Simulation tolerance relaxed to achieve convergence from 1.0459204554481355e-03 to 1.0459204554481454e-03 seconds.
Warning: Simulation tolerance relaxed to achieve convergence from 1.0459204554481454e-03 to 1.0459204554481554e-03 seconds.
Warning: Simulation tolerance relaxed to achieve convergence from 1.0459204554481554e-03 to 1.0459204554481654e-03 seconds.
Warning: Simulation tolerance relaxed to achieve convergence from 1.0459204554481654e-03 to 1.0459204554481754e-03 seconds.
Warning: Simulation tolerance relaxed to achieve convergence from 1.0459204554481754e-03 to 1.0459204554481853e-03 seconds.
Warning: Simulation tolerance relaxed to achieve convergence from 1.0459204554481853e-03 to 1.0459204554481953e-03 seconds.
Warning: Simulation tolerance relaxed to achieve convergence from 1.0459204554481953e-03 to 1.0459204554482053e-03 seconds.
Warning: Simulation tolerance relaxed to achieve convergence from 1.0459204554482053e-03 to 1.0459204554482153e-03 seconds.
Warning: Simulation tolerance relaxed to achieve convergence from 1.0459204554482153e-03 to 1.0459204554482252e-03 seconds.
Warning: Simulation tolerance relaxed to achieve convergence from 1.0459204554482252e-03 to 1.0459204554482352e-03 seconds.
Warning: Simulation tolerance relaxed to achieve convergence from 1.0459204554482352e-03 to 1.0459204554482452e-03 seconds.
Warning: Simulation tolerance relaxed to achieve convergence from 1.0459204554482651e-03 to 1.0459204554482751e-03 seconds.
Warning: Simulation tolerance relaxed to achieve convergence from 1.0459204554482751e-03 to 1.0459204554482851e-03 seconds.
Warning: Simulation tolerance relaxed to achieve convergence from 1.0459204554482851e-03 to 1.0459204554482951e-03 seconds.
Warning: Simulation tolerance relaxed to achieve convergence from 1.0459204554482951e-03 to 1.0459204554483050e-03 seconds.
Warning: Simulation tolerance relaxed to achieve convergence from 1.0459204554483050e-03 to 1.0459204554483150e-03 seconds.
Warning: Simulation tolerance relaxed to achieve convergence from 1.0459204554483150e-03 to 1.0459204554483250e-03 seconds.
Warning: Simulation tolerance relaxed to achieve convergence from 1.0459204554483250e-03 to 1.0459204554483350e-03 seconds.
Warning: Simulation tolerance relaxed to achieve convergence from 1.0459204554483350e-03 to 1.0459204554483449e-03 seconds.
Warning: Simulation tolerance relaxed to achieve convergence from 1.0459204554483449e-03 to 1.0459204554483549e-03 seconds.
Warning: Simulation tolerance relaxed to achieve convergence from 1.0459204554483549e-03 to 1.0459204554483649e-03 seconds.
Warning: Simulation tolerance relaxed to achieve convergence from 1.0459204554483649e-03 to 1.0459204554483749e-03 seconds.
Warning: Simulation tolerance relaxed to achieve convergence from 1.0459204554483749e-03 to 1.0459204554483848e-03 seconds.
Warning: Simulation tolerance relaxed to achieve convergence from 1.0459204554483848e-03 to 1.0459204554483948e-03 seconds.
Warning: Simulation tolerance relaxed to achieve convergence from 1.0459204554483948e-03 to 1.0459204554484048e-03 seconds.
Warning: Simulation tolerance relaxed to achieve convergence from 1.0459204554484048e-03 to 1.0459204554484148e-03 seconds.
Warning: Simulation tolerance relaxed to achieve convergence from 1.0459204554484148e-03 to 1.0459204554484247e-03 seconds.
Warning: Simulation tolerance relaxed to achieve convergence from 1.0459204554484247e-03 to 1.0459204554484347e-03 seconds.
Warning: Simulation tolerance relaxed to achieve convergence from 1.0459204554484347e-03 to 1.0459204554484447e-03 seconds.
Warning: Simulation tolerance relaxed to achieve convergence from 1.0459204554484646e-03 to 1.0459204554484746e-03 seconds.
Warning: Simulation tolerance relaxed to achieve convergence from 1.0459204554484746e-03 to 1.0459204554484846e-03 seconds.
Warning: Simulation tolerance relaxed to achieve convergence from 1.0459204554484846e-03 to 1.0459204554484946e-03 seconds.
Warning: Simulation tolerance relaxed to achieve convergence from 1.0459204554484946e-03 to 1.0459204554485045e-03 seconds.
Warning: Simulation tolerance relaxed to achieve convergence from 1.0459204554485245e-03 to 1.0459204554485345e-03 seconds.
Warning: Simulation tolerance relaxed to achieve convergence from 1.0459204554485345e-03 to 1.0459204554485444e-03 seconds.
Warning: Simulation tolerance relaxed to achieve convergence from 1.0459204554485444e-03 to 1.0459204554485544e-03 seconds.
Warning: Simulation tolerance relaxed to achieve convergence from 1.0459204554485544e-03 to 1.0459204554485644e-03 seconds.
Warning: Simulation tolerance relaxed to achieve convergence from 1.0459204554485644e-03 to 1.0459204554485744e-03 seconds.
Warning: Simulation tolerance relaxed to achieve convergence from 1.0459204554485744e-03 to 1.0459204554485843e-03 seconds.
Warning: Simulation tolerance relaxed to achieve convergence from 1.0459204554485843e-03 to 1.0459204554485943e-03 seconds.
Warning: Simulation tolerance relaxed to achieve convergence from 1.0459204554485943e-03 to 1.0459204554486043e-03 seconds.
Warning: Simulation tolerance relaxed to achieve convergence from 1.0459204554486043e-03 to 1.0459204554486142e-03 seconds.
Warning: Simulation tolerance relaxed to achieve convergence from 1.0459204554486142e-03 to 1.0459204554486242e-03 seconds.
Warning: Simulation tolerance relaxed to achieve convergence from 1.0459204554486242e-03 to 1.0459204554486342e-03 seconds.
Warning: Simulation tolerance relaxed to achieve convergence from 1.0459204554486342e-03 to 1.0459204554486442e-03 seconds.
Warning: Simulation tolerance relaxed to achieve convergence from 1.0459204554486442e-03 to 1.0459204554486541e-03 seconds.
Warning: Simulation tolerance relaxed to achieve convergence from 1.0459204554486541e-03 to 1.0459204554486641e-03 seconds.
Warning: Simulation tolerance relaxed to achieve convergence from 1.0459204554486641e-03 to 1.0459204554486741e-03 seconds.
Warning: Simulation tolerance relaxed to achieve convergence from 1.0459204554486741e-03 to 1.0459204554486841e-03 seconds.
Warning: Simulation tolerance relaxed to achieve convergence from 1.0459204554486841e-03 to 1.0459204554486940e-03 seconds.
Warning: Simulation tolerance relaxed to achieve convergence from 1.0459204554486940e-03 to 1.0459204554487040e-03 seconds.
Warning: Simulation tolerance relaxed to achieve convergence from 1.0459204554487040e-03 to 1.0459204554487140e-03 seconds.
Warning: Simulation tolerance relaxed to achieve convergence from 1.0459204554487140e-03 to 1.0459204554487240e-03 seconds.
Warning: Simulation tolerance relaxed to achieve convergence from 1.0459204554487240e-03 to 1.0459204554487339e-03 seconds.
Warning: Simulation tolerance relaxed to achieve convergence from 1.0459204554487339e-03 to 1.0459204554487439e-03 seconds.
Warning: Simulation tolerance relaxed to achieve convergence from 1.0459204554487439e-03 to 1.0459204554487539e-03 seconds.
Warning: Simulation tolerance relaxed to achieve convergence from 1.0459204554487539e-03 to 1.0459204554487639e-03 seconds.
Warning: Simulation tolerance relaxed to achieve convergence from 1.0459204554487639e-03 to 1.0459204554487738e-03 seconds.
Warning: Simulation tolerance relaxed to achieve convergence from 1.0459204554487738e-03 to 1.0459204554487838e-03 seconds.
Warning: Simulation tolerance relaxed to achieve convergence from 1.0459204554487838e-03 to 1.0459204554487938e-03 seconds.
Warning: Simulation tolerance relaxed to achieve convergence from 1.0459204554487938e-03 to 1.0459204554488038e-03 seconds.
Warning: Simulation tolerance relaxed to achieve convergence from 1.0459204554488038e-03 to 1.0459204554488137e-03 seconds.
Warning: Simulation tolerance relaxed to achieve convergence from 1.0459204554488137e-03 to 1.0459204554488237e-03 seconds.
Warning: Simulation tolerance relaxed to achieve convergence from 1.0459204554488237e-03 to 1.0459204554488337e-03 seconds.
Warning: Simulation tolerance relaxed to achieve convergence from 1.0459204554488337e-03 to 1.0459204554488437e-03 seconds.
Warning: Simulation tolerance relaxed to achieve convergence from 1.0459204554488437e-03 to 1.0459204554488536e-03 seconds.
Warning: Simulation tolerance relaxed to achieve convergence from 1.0459204554488536e-03 to 1.0459204554488636e-03 seconds.
Warning: Simulation tolerance relaxed to achieve convergence from 1.0459204554488636e-03 to 1.0459204554488736e-03 seconds.
Warning: Simulation tolerance relaxed to achieve convergence from 1.0459204554488935e-03 to 1.0459204554489035e-03 seconds.
Warning: Simulation tolerance relaxed to achieve convergence from 1.0459204554489035e-03 to 1.0459204554489135e-03 seconds.
Warning: Simulation tolerance relaxed to achieve convergence from 1.0459204554489135e-03 to 1.0459204554489235e-03 seconds.
Warning: Simulation tolerance relaxed to achieve convergence from 1.0459204554489235e-03 to 1.0459204554489334e-03 seconds.
Warning: Simulation tolerance relaxed to achieve convergence from 1.0459204554489334e-03 to 1.0459204554489434e-03 seconds.
Warning: Simulation tolerance relaxed to achieve convergence from 1.0459204554489434e-03 to 1.0459204554489534e-03 seconds.
Warning: Simulation tolerance relaxed to achieve convergence from 1.0459204554489534e-03 to 1.0459204554489634e-03 seconds.
Warning: Simulation tolerance relaxed to achieve convergence from 1.0459204554489634e-03 to 1.0459204554489733e-03 seconds.
Warning: Simulation tolerance relaxed to achieve convergence from 1.0459204554489733e-03 to 1.0459204554489833e-03 seconds.
Warning: Simulation tolerance relaxed to achieve convergence from 1.0459204554489833e-03 to 1.0459204554489933e-03 seconds.
Warning: Simulation tolerance relaxed to achieve convergence from 1.0459204554489933e-03 to 1.0459204554490033e-03 seconds.
Warning: Simulation tolerance relaxed to achieve convergence from 1.0459204554490033e-03 to 1.0459204554490132e-03 seconds.
Warning: Simulation tolerance relaxed to achieve convergence from 1.0459204554490132e-03 to 1.0459204554490232e-03 seconds.
Warning: Simulation tolerance relaxed to achieve convergence from 1.0459204554490232e-03 to 1.0459204554490332e-03 seconds.
Warning: Simulation tolerance relaxed to achieve convergence from 1.0459204554490332e-03 to 1.0459204554490432e-03 seconds.
Warning: Simulation tolerance relaxed to achieve convergence from 1.0459204554490432e-03 to 1.0459204554490531e-03 seconds.
Warning: Simulation tolerance relaxed to achieve convergence from 1.0459204554490531e-03 to 1.0459204554490631e-03 seconds.
Warning: Simulation tolerance relaxed to achieve convergence from 1.0459204554490631e-03 to 1.0459204554490731e-03 seconds.
Warning: Simulation tolerance relaxed to achieve convergence from 1.0459204554490731e-03 to 1.0459204554490831e-03 seconds.
Warning: Simulation tolerance relaxed to achieve convergence from 1.0459204554490831e-03 to 1.0459204554490930e-03 seconds.
Warning: Simulation tolerance relaxed to achieve convergence from 1.0459204554490930e-03 to 1.0459204554491030e-03 seconds.
Warning: Simulation tolerance relaxed to achieve convergence from 1.0459204554491030e-03 to 1.0459204554491130e-03 seconds.
Warning: Simulation tolerance relaxed to achieve convergence from 1.0459204554491130e-03 to 1.0459204554491230e-03 seconds.
Warning: Simulation tolerance relaxed to achieve convergence from 1.0459204554491230e-03 to 1.0459204554491329e-03 seconds.
Warning: Simulation tolerance relaxed to achieve convergence from 1.0459204554491329e-03 to 1.0459204554491429e-03 seconds.
Warning: Simulation tolerance relaxed to achieve convergence from 1.0459204554491429e-03 to 1.0459204554491529e-03 seconds.
Warning: Simulation tolerance relaxed to achieve convergence from 1.0459204554491529e-03 to 1.0459204554491629e-03 seconds.
Warning: Simulation tolerance relaxed to achieve convergence from 1.0459204554491629e-03 to 1.0459204554491728e-03 seconds.
Warning: Simulation tolerance relaxed to achieve convergence from 1.0459204554491728e-03 to 1.0459204554491828e-03 seconds.
Warning: Simulation tolerance relaxed to achieve convergence from 1.0459204554491828e-03 to 1.0459204554491928e-03 seconds.
Warning: Simulation tolerance relaxed to achieve convergence from 1.0459204554491928e-03 to 1.0459204554492028e-03 seconds.
Warning: Simulation tolerance relaxed to achieve convergence from 1.0459204554492028e-03 to 1.0459204554492127e-03 seconds.
Warning: Simulation tolerance relaxed to achieve convergence from 1.0459204554492127e-03 to 1.0459204554492227e-03 seconds.
Warning: Simulation tolerance relaxed to achieve convergence from 1.0459204554492227e-03 to 1.0459204554492327e-03 seconds.
Warning: Simulation tolerance relaxed to achieve convergence from 1.0459204554492327e-03 to 1.0459204554492427e-03 seconds.
Warning: Simulation tolerance relaxed to achieve convergence from 1.0459204554492427e-03 to 1.0459204554492526e-03 seconds.
Warning: Simulation tolerance relaxed to achieve convergence from 1.0459204554492526e-03 to 1.0459204554492626e-03 seconds.
Warning: Simulation tolerance relaxed to achieve convergence from 1.0459204554492626e-03 to 1.0459204554492726e-03 seconds.
Warning: Simulation tolerance relaxed to achieve convergence from 1.0459204554492726e-03 to 1.0459204554492826e-03 seconds.
Warning: Simulation tolerance relaxed to achieve convergence from 1.0459204554492826e-03 to 1.0459204554492925e-03 seconds.
Warning: Simulation tolerance relaxed to achieve convergence from 1.0459204554492925e-03 to 1.0459204554493025e-03 seconds.
Warning: Simulation tolerance relaxed to achieve convergence from 1.0459204554493025e-03 to 1.0459204554493125e-03 seconds.
Warning: Simulation tolerance relaxed to achieve convergence from 1.0459204554493125e-03 to 1.0459204554493224e-03 seconds.
Warning: Simulation tolerance relaxed to achieve convergence from 1.0459204554493224e-03 to 1.0459204554493324e-03 seconds.
Warning: Simulation tolerance relaxed to achieve convergence from 1.0459204554493324e-03 to 1.0459204554493424e-03 seconds.
Warning: Simulation tolerance relaxed to achieve convergence from 1.0459204554493424e-03 to 1.0459204554493524e-03 seconds.
Warning: Simulation tolerance relaxed to achieve convergence from 1.0459204554493524e-03 to 1.0459204554493623e-03 seconds.
Warning: Simulation tolerance relaxed to achieve convergence from 1.0459204554493623e-03 to 1.0459204554493723e-03 seconds.
Warning: Simulation tolerance relaxed to achieve convergence from 1.0459204554493723e-03 to 1.0459204554493823e-03 seconds.
Warning: Simulation tolerance relaxed to achieve convergence from 1.0459204554493823e-03 to 1.0459204554493923e-03 seconds.
Warning: Simulation tolerance relaxed to achieve convergence from 1.0459204554493923e-03 to 1.0459204554494022e-03 seconds.
Warning: Simulation tolerance relaxed to achieve convergence from 1.0459204554494022e-03 to 1.0459204554494122e-03 seconds.
Warning: Simulation tolerance relaxed to achieve convergence from 1.0459204554494122e-03 to 1.0459204554494222e-03 seconds.
Warning: Simulation tolerance relaxed to achieve convergence from 1.0459204554494222e-03 to 1.0459204554494322e-03 seconds.
Warning: Simulation tolerance relaxed to achieve convergence from 1.0459204554494322e-03 to 1.0459204554494421e-03 seconds.
Warning: Simulation tolerance relaxed to achieve convergence from 1.0459204554494421e-03 to 1.0459204554494521e-03 seconds.
Warning: Simulation tolerance relaxed to achieve convergence from 1.0459204554494521e-03 to 1.0459204554494621e-03 seconds.
Warning: Simulation tolerance relaxed to achieve convergence from 1.0459204554494621e-03 to 1.0459204554494721e-03 seconds.
Warning: Simulation tolerance relaxed to achieve convergence from 1.0459204554494721e-03 to 1.0459204554494820e-03 seconds.
Warning: Simulation tolerance relaxed to achieve convergence from 1.0459204554494820e-03 to 1.0459204554494920e-03 seconds.
Warning: Simulation tolerance relaxed to achieve convergence from 1.0459204554495319e-03 to 1.0459204554495419e-03 seconds.
Warning: Simulation tolerance relaxed to achieve convergence from 1.0459204554495419e-03 to 1.0459204554495519e-03 seconds.
Warning: Simulation tolerance relaxed to achieve convergence from 1.0459204554495519e-03 to 1.0459204554495618e-03 seconds.
Warning: Simulation tolerance relaxed to achieve convergence from 1.0459204554495618e-03 to 1.0459204554495718e-03 seconds.
Warning: Simulation tolerance relaxed to achieve convergence from 1.0459204554495718e-03 to 1.0459204554495818e-03 seconds.
Warning: Simulation tolerance relaxed to achieve convergence from 1.0459204554495818e-03 to 1.0459204554495918e-03 seconds.
Warning: Simulation tolerance relaxed to achieve convergence from 1.0459204554495918e-03 to 1.0459204554496017e-03 seconds.
Warning: Simulation tolerance relaxed to achieve convergence from 1.0459204554496017e-03 to 1.0459204554496117e-03 seconds.
Warning: Simulation tolerance relaxed to achieve convergence from 1.0459204554496117e-03 to 1.0459204554496217e-03 seconds.
Warning: Simulation tolerance relaxed to achieve convergence from 1.0459204554496217e-03 to 1.0459204554496317e-03 seconds.
Warning: Simulation tolerance relaxed to achieve convergence from 1.0459204554496516e-03 to 1.0459204554496616e-03 seconds.
Warning: Simulation tolerance relaxed to achieve convergence from 1.0459204554496616e-03 to 1.0459204554496716e-03 seconds.
Warning: Simulation tolerance relaxed to achieve convergence from 1.0459204554496716e-03 to 1.0459204554496815e-03 seconds.
Warning: Simulation tolerance relaxed to achieve convergence from 1.0459204554497015e-03 to 1.0459204554497115e-03 seconds.
Warning: Simulation tolerance relaxed to achieve convergence from 1.0459204554497115e-03 to 1.0459204554497214e-03 seconds.
Warning: Simulation tolerance relaxed to achieve convergence from 1.0459204554497214e-03 to 1.0459204554497314e-03 seconds.
Warning: Simulation tolerance relaxed to achieve convergence from 1.0459204554497314e-03 to 1.0459204554497414e-03 seconds.
Warning: Simulation tolerance relaxed to achieve convergence from 1.0459204554497414e-03 to 1.0459204554497514e-03 seconds.
Warning: Simulation tolerance relaxed to achieve convergence from 1.0459204554497514e-03 to 1.0459204554497613e-03 seconds.
Warning: Simulation tolerance relaxed to achieve convergence from 1.0459204554497613e-03 to 1.0459204554497713e-03 seconds.
Warning: Simulation tolerance relaxed to achieve convergence from 1.0459204554497713e-03 to 1.0459204554497813e-03 seconds.
Warning: Simulation tolerance relaxed to achieve convergence from 1.0459204554497813e-03 to 1.0459204554497913e-03 seconds.
Warning: Simulation tolerance relaxed to achieve convergence from 1.0459204554497913e-03 to 1.0459204554498012e-03 seconds.
Warning: Simulation tolerance relaxed to achieve convergence from 1.0459204554498012e-03 to 1.0459204554498112e-03 seconds.
Warning: Simulation tolerance relaxed to achieve convergence from 1.0459204554498112e-03 to 1.0459204554498212e-03 seconds.
Warning: Simulation tolerance relaxed to achieve convergence from 1.0459204554498212e-03 to 1.0459204554498312e-03 seconds.
Warning: Simulation tolerance relaxed to achieve convergence from 1.0459204554498312e-03 to 1.0459204554498411e-03 seconds.
Warning: Simulation tolerance relaxed to achieve convergence from 1.0459204554498411e-03 to 1.0459204554498511e-03 seconds.
Warning: Simulation tolerance relaxed to achieve convergence from 1.0459204554498511e-03 to 1.0459204554498611e-03 seconds.
Warning: Simulation tolerance relaxed to achieve convergence from 1.0459204554498611e-03 to 1.0459204554498711e-03 seconds.
Warning: Simulation tolerance relaxed to achieve convergence from 1.0459204554499110e-03 to 1.0459204554499209e-03 seconds.
Warning: Simulation tolerance relaxed to achieve convergence from 1.0459204554499209e-03 to 1.0459204554499309e-03 seconds.
Warning: Simulation tolerance relaxed to achieve convergence from 1.0459204554499309e-03 to 1.0459204554499409e-03 seconds.
Warning: Simulation tolerance relaxed to achieve convergence from 1.0459204554499409e-03 to 1.0459204554499509e-03 seconds.
Warning: Simulation tolerance relaxed to achieve convergence from 1.0459204554499509e-03 to 1.0459204554499608e-03 seconds.
Warning: Simulation tolerance relaxed to achieve convergence from 1.0459204554499608e-03 to 1.0459204554499708e-03 seconds.
Warning: Simulation tolerance relaxed to achieve convergence from 1.0459204554499708e-03 to 1.0459204554499808e-03 seconds.
Warning: Simulation tolerance relaxed to achieve convergence from 1.0459204554499808e-03 to 1.0459204554499908e-03 seconds.
Warning: Simulation tolerance relaxed to achieve convergence from 1.0459204554499908e-03 to 1.0459204554500007e-03 seconds.
Warning: Simulation tolerance relaxed to achieve convergence from 1.0459204554500007e-03 to 1.0459204554500107e-03 seconds.
Warning: Simulation tolerance relaxed to achieve convergence from 1.0459204554500107e-03 to 1.0459204554500207e-03 seconds.
Warning: Simulation tolerance relaxed to achieve convergence from 1.0459204554500207e-03 to 1.0459204554500307e-03 seconds.
Warning: Simulation tolerance relaxed to achieve convergence from 1.0459204554500307e-03 to 1.0459204554500406e-03 seconds.
Warning: Simulation tolerance relaxed to achieve convergence from 1.0459204554500406e-03 to 1.0459204554500506e-03 seconds.
Warning: Simulation tolerance relaxed to achieve convergence from 1.0459204554500506e-03 to 1.0459204554500606e-03 seconds.
Warning: Simulation tolerance relaxed to achieve convergence from 1.0459204554500606e-03 to 1.0459204554500705e-03 seconds.
Warning: Simulation tolerance relaxed to achieve convergence from 1.0459204554500705e-03 to 1.0459204554500805e-03 seconds.
Warning: Simulation tolerance relaxed to achieve convergence from 1.0459204554500805e-03 to 1.0459204554500905e-03 seconds.
Warning: Simulation tolerance relaxed to achieve convergence from 1.0459204554500905e-03 to 1.0459204554501005e-03 seconds.
Warning: Simulation tolerance relaxed to achieve convergence from 1.0459204554501204e-03 to 1.0459204554501304e-03 seconds.
Warning: Simulation tolerance relaxed to achieve convergence from 1.0459204554501304e-03 to 1.0459204554501404e-03 seconds.
Warning: Simulation tolerance relaxed to achieve convergence from 1.0459204554501404e-03 to 1.0459204554501503e-03 seconds.
Warning: Simulation tolerance relaxed to achieve convergence from 1.0459204554501503e-03 to 1.0459204554501603e-03 seconds.
Warning: Simulation tolerance relaxed to achieve convergence from 1.0459204554501603e-03 to 1.0459204554501703e-03 seconds.
Warning: Simulation tolerance relaxed to achieve convergence from 1.0459204554501703e-03 to 1.0459204554501803e-03 seconds.
Warning: Simulation tolerance relaxed to achieve convergence from 1.0459204554501803e-03 to 1.0459204554501902e-03 seconds.
Warning: Simulation tolerance relaxed to achieve convergence from 1.0459204554501902e-03 to 1.0459204554502002e-03 seconds.
Warning: Simulation tolerance relaxed to achieve convergence from 1.0459204554502002e-03 to 1.0459204554502102e-03 seconds.
Warning: Simulation tolerance relaxed to achieve convergence from 1.0459204554502102e-03 to 1.0459204554502202e-03 seconds.
Warning: Simulation tolerance relaxed to achieve convergence from 1.0459204554502202e-03 to 1.0459204554502301e-03 seconds.
Warning: Simulation tolerance relaxed to achieve convergence from 1.0459204554502301e-03 to 1.0459204554502401e-03 seconds.
Warning: Simulation tolerance relaxed to achieve convergence from 1.0459204554502401e-03 to 1.0459204554502501e-03 seconds.
Warning: Simulation tolerance relaxed to achieve convergence from 1.0459204554502501e-03 to 1.0459204554502601e-03 seconds.
Warning: Simulation tolerance relaxed to achieve convergence from 1.0459204554502601e-03 to 1.0459204554502700e-03 seconds.
Warning: Simulation tolerance relaxed to achieve convergence from 1.0459204554502900e-03 to 1.0459204554503000e-03 seconds.
Warning: Simulation tolerance relaxed to achieve convergence from 1.0459204554503000e-03 to 1.0459204554503099e-03 seconds.
Warning: Simulation tolerance relaxed to achieve convergence from 1.0459204554503299e-03 to 1.0459204554503399e-03 seconds.
Warning: Simulation tolerance relaxed to achieve convergence from 1.0459204554503399e-03 to 1.0459204554503498e-03 seconds.
Warning: Simulation tolerance relaxed to achieve convergence from 1.0459204554503498e-03 to 1.0459204554503598e-03 seconds.
Warning: Simulation tolerance relaxed to achieve convergence from 1.0459204554503598e-03 to 1.0459204554503698e-03 seconds.
Warning: Simulation tolerance relaxed to achieve convergence from 1.0459204554503698e-03 to 1.0459204554503798e-03 seconds.
Warning: Simulation tolerance relaxed to achieve convergence from 1.0459204554503798e-03 to 1.0459204554503897e-03 seconds.
Warning: Simulation tolerance relaxed to achieve convergence from 1.0459204554503897e-03 to 1.0459204554503997e-03 seconds.
Warning: Simulation tolerance relaxed to achieve convergence from 1.0459204554503997e-03 to 1.0459204554504097e-03 seconds.
Warning: Simulation tolerance relaxed to achieve convergence from 1.0459204554504097e-03 to 1.0459204554504197e-03 seconds.
Warning: Simulation tolerance relaxed to achieve convergence from 1.0459204554504197e-03 to 1.0459204554504296e-03 seconds.
Warning: Simulation tolerance relaxed to achieve convergence from 1.0459204554504296e-03 to 1.0459204554504396e-03 seconds.
Warning: Simulation tolerance relaxed to achieve convergence from 1.0459204554504396e-03 to 1.0459204554504496e-03 seconds.
Warning: Simulation tolerance relaxed to achieve convergence from 1.0459204554504496e-03 to 1.0459204554504596e-03 seconds.
Warning: Simulation tolerance relaxed to achieve convergence from 1.0459204554504596e-03 to 1.0459204554504695e-03 seconds.
Warning: Simulation tolerance relaxed to achieve convergence from 1.0459204554504695e-03 to 1.0459204554504795e-03 seconds.
Warning: Simulation tolerance relaxed to achieve convergence from 1.0459204554504795e-03 to 1.0459204554504895e-03 seconds.
Warning: Simulation tolerance relaxed to achieve convergence from 1.0459204554504895e-03 to 1.0459204554504995e-03 seconds.
Warning: Simulation tolerance relaxed to achieve convergence from 1.0459204554505294e-03 to 1.0459204554505394e-03 seconds.
Warning: Simulation tolerance relaxed to achieve convergence from 1.0459204554505394e-03 to 1.0459204554505493e-03 seconds.
Warning: Simulation tolerance relaxed to achieve convergence from 1.0459204554505493e-03 to 1.0459204554505593e-03 seconds.
Warning: Simulation tolerance relaxed to achieve convergence from 1.0459204554505593e-03 to 1.0459204554505693e-03 seconds.
Warning: Simulation tolerance relaxed to achieve convergence from 1.0459204554505693e-03 to 1.0459204554505793e-03 seconds.
Warning: Simulation tolerance relaxed to achieve convergence from 1.0459204554505793e-03 to 1.0459204554505892e-03 seconds.
Warning: Simulation tolerance relaxed to achieve convergence from 1.0459204554505892e-03 to 1.0459204554505992e-03 seconds.
Warning: Simulation tolerance relaxed to achieve convergence from 1.0459204554505992e-03 to 1.0459204554506092e-03 seconds.
Warning: Simulation tolerance relaxed to achieve convergence from 1.0459204554506092e-03 to 1.0459204554506192e-03 seconds.
Warning: Simulation tolerance relaxed to achieve convergence from 1.0459204554506192e-03 to 1.0459204554506291e-03 seconds.
Warning: Simulation tolerance relaxed to achieve convergence from 1.0459204554506291e-03 to 1.0459204554506391e-03 seconds.
Warning: Simulation tolerance relaxed to achieve convergence from 1.0459204554506391e-03 to 1.0459204554506491e-03 seconds.
Warning: Simulation tolerance relaxed to achieve convergence from 1.0459204554506491e-03 to 1.0459204554506591e-03 seconds.
Warning: Simulation tolerance relaxed to achieve convergence from 1.0459204554506591e-03 to 1.0459204554506690e-03 seconds.
Warning: Simulation tolerance relaxed to achieve convergence from 1.0459204554506690e-03 to 1.0459204554506790e-03 seconds.
Warning: Simulation tolerance relaxed to achieve convergence from 1.0459204554506790e-03 to 1.0459204554506890e-03 seconds.
Warning: Simulation tolerance relaxed to achieve convergence from 1.0459204554506890e-03 to 1.0459204554506990e-03 seconds.
Warning: Simulation tolerance relaxed to achieve convergence from 1.0459204554506990e-03 to 1.0459204554507089e-03 seconds.
Warning: Simulation tolerance relaxed to achieve convergence from 1.0459204554507089e-03 to 1.0459204554507189e-03 seconds.
Warning: Simulation tolerance relaxed to achieve convergence from 1.0459204554507189e-03 to 1.0459204554507289e-03 seconds.
Warning: Simulation tolerance relaxed to achieve convergence from 1.0459204554507289e-03 to 1.0459204554507389e-03 seconds.
Warning: Simulation tolerance relaxed to achieve convergence from 1.0459204554507389e-03 to 1.0459204554507488e-03 seconds.
Warning: Simulation tolerance relaxed to achieve convergence from 1.0459204554507488e-03 to 1.0459204554507588e-03 seconds.
Warning: Simulation tolerance relaxed to achieve convergence from 1.0459204554507588e-03 to 1.0459204554507688e-03 seconds.
Warning: Simulation tolerance relaxed to achieve convergence from 1.0459204554507688e-03 to 1.0459204554507788e-03 seconds.
Warning: Simulation tolerance relaxed to achieve convergence from 1.0459204554507788e-03 to 1.0459204554507887e-03 seconds.
Warning: Simulation tolerance relaxed to achieve convergence from 1.0459204554507887e-03 to 1.0459204554507987e-03 seconds.
Warning: Simulation tolerance relaxed to achieve convergence from 1.0459204554507987e-03 to 1.0459204554508087e-03 seconds.
Warning: Simulation tolerance relaxed to achieve convergence from 1.0459204554508087e-03 to 1.0459204554508186e-03 seconds.
Warning: Simulation tolerance relaxed to achieve convergence from 1.0459204554508186e-03 to 1.0459204554508286e-03 seconds.
[...]
Warning: Simulation tolerance relaxed to achieve convergence from 1.0459204554750172e-03 to 1.0459204554750271e-03 seconds.
Warning: Simulation tolerance relaxed to achieve convergence from 1.0459204554750271e-03 to 1.0459204554750371e-03 seconds.
Warning: Simulation tolerance relaxed to achieve convergence from 1.0459204554750371e-03 to 1.0459204554750471e-03 seconds.
Warning: Simulation tolerance relaxed to achieve convergence from 1.0459204554750471e-03 to 1.0459204554750571e-03 seconds.
Warning: Simulation tolerance relaxed to achieve convergence from 1.0459204554750571e-03 to 1.0459204554750670e-03 seconds.
Warning: Simulation tolerance relaxed to achieve convergence from 1.0459204554751069e-03 to 1.0459204554751169e-03 seconds.
Warning: Simulation tolerance relaxed to achieve convergence from 1.0459204554751169e-03 to 1.0459204554751269e-03 seconds.
Warning: Simulation tolerance relaxed to achieve convergence from 1.0459204554751269e-03 to 1.0459204554751369e-03 seconds.
Warning: Simulation tolerance relaxed to achieve convergence from 1.0459204554751369e-03 to 1.0459204554751468e-03 seconds.
Warning: Simulation tolerance relaxed to achieve convergence from 1.0459204554751468e-03 to 1.0459204554751568e-03 seconds.
Warning: Simulation tolerance relaxed to achieve convergence from 1.0459204554751568e-03 to 1.0459204554751668e-03 seconds.
Warning: Simulation tolerance relaxed to achieve convergence from 1.0459204554751668e-03 to 1.0459204554751768e-03 seconds.
Warning: Simulation tolerance relaxed to achieve convergence from 1.0459204554751768e-03 to 1.0459204554751867e-03 seconds.
Warning: Simulation tolerance relaxed to achieve convergence from 1.0459204554751867e-03 to 1.0459204554751967e-03 seconds.
Warning: Simulation tolerance relaxed to achieve convergence from 1.0459204554751967e-03 to 1.0459204554752067e-03 seconds.
Warning: Simulation tolerance relaxed to achieve convergence from 1.0459204554752067e-03 to 1.0459204554752167e-03 seconds.
Warning: Simulation tolerance relaxed to achieve convergence from 1.0459204554752167e-03 to 1.0459204554752266e-03 seconds.
Warning: Simulation tolerance relaxed to achieve convergence from 1.0459204554752266e-03 to 1.0459204554752366e-03 seconds.
Warning: Simulation tolerance relaxed to achieve convergence from 1.0459204554752366e-03 to 1.0459204554752466e-03 seconds.
Warning: Simulation tolerance relaxed to achieve convergence from 1.0459204554752466e-03 to 1.0459204554752566e-03 seconds.
Warning: Simulation tolerance relaxed to achieve convergence from 1.0459204554752566e-03 to 1.0459204554752665e-03 seconds.
Warning: Simulation tolerance relaxed to achieve convergence from 1.0459204554752665e-03 to 1.0459204554752765e-03 seconds.
Warning: Simulation tolerance relaxed to achieve convergence from 1.0459204554752765e-03 to 1.0459204554752865e-03 seconds.
Warning: Simulation tolerance relaxed to achieve convergence from 1.0459204554752865e-03 to 1.0459204554752965e-03 seconds.
Warning: Simulation tolerance relaxed to achieve convergence from 1.0459204554752965e-03 to 1.0459204554753064e-03 seconds.
Warning: Simulation tolerance relaxed to achieve convergence from 1.0459204554753064e-03 to 1.0459204554753164e-03 seconds.
Warning: Simulation tolerance relaxed to achieve convergence from 1.0459204554753164e-03 to 1.0459204554753264e-03 seconds.
Warning: Simulation tolerance relaxed to achieve convergence from 1.0459204554753264e-03 to 1.0459204554753364e-03 seconds.
Warning: Simulation tolerance relaxed to achieve convergence from 1.0459204554753364e-03 to 1.0459204554753463e-03 seconds.
Warning: Simulation tolerance relaxed to achieve convergence from 1.0459204554753463e-03 to 1.0459204554753563e-03 seconds.
Warning: Simulation tolerance relaxed to achieve convergence from 1.0459204554753563e-03 to 1.0459204554753663e-03 seconds.
Warning: Simulation tolerance relaxed to achieve convergence from 1.0459204554753663e-03 to 1.0459204554753763e-03 seconds.
Warning: Simulation tolerance relaxed to achieve convergence from 1.0459204554753763e-03 to 1.0459204554753862e-03 seconds.
Warning: Simulation tolerance relaxed to achieve convergence from 1.0459204554753862e-03 to 1.0459204554753962e-03 seconds.
Warning: Simulation tolerance relaxed to achieve convergence from 1.0459204554753962e-03 to 1.0459204554754062e-03 seconds.
Warning: Simulation tolerance relaxed to achieve convergence from 1.0459204554754062e-03 to 1.0459204554754162e-03 seconds.
Warning: Simulation tolerance relaxed to achieve convergence from 1.0459204554754162e-03 to 1.0459204554754261e-03 seconds.
Warning: Simulation tolerance relaxed to achieve convergence from 1.0459204554754261e-03 to 1.0459204554754361e-03 seconds.
Warning: Simulation tolerance relaxed to achieve convergence from 1.0459204554754361e-03 to 1.0459204554754461e-03 seconds.
Warning: Simulation tolerance relaxed to achieve convergence from 1.0459204554754461e-03 to 1.0459204554754561e-03 seconds.
Warning: Simulation tolerance relaxed to achieve convergence from 1.0459204554754561e-03 to 1.0459204554754660e-03 seconds.
Warning: Simulation tolerance relaxed to achieve convergence from 1.0459204554754660e-03 to 1.0459204554754760e-03 seconds.
Warning: Simulation tolerance relaxed to achieve convergence from 1.0459204554754760e-03 to 1.0459204554754860e-03 seconds.
Warning: Simulation tolerance relaxed to achieve convergence from 1.0459204554754860e-03 to 1.0459204554754960e-03 seconds.
Warning: Simulation tolerance relaxed to achieve convergence from 1.0459204554754960e-03 to 1.0459204554755059e-03 seconds.
Warning: Simulation tolerance relaxed to achieve convergence from 1.0459204554755059e-03 to 1.0459204554755159e-03 seconds.
Warning: Simulation tolerance relaxed to achieve convergence from 1.0459204554755159e-03 to 1.0459204554755259e-03 seconds.
Warning: Simulation tolerance relaxed to achieve convergence from 1.0459204554755259e-03 to 1.0459204554755359e-03 seconds.
Warning: Simulation tolerance relaxed to achieve convergence from 1.0459204554755359e-03 to 1.0459204554755458e-03 seconds.
Warning: Simulation tolerance relaxed to achieve convergence from 1.0459204554755458e-03 to 1.0459204554755558e-03 seconds.
Warning: Simulation tolerance relaxed to achieve convergence from 1.0459204554755957e-03 to 1.0459204554756057e-03 seconds.
Warning: Simulation tolerance relaxed to achieve convergence from 1.0459204554756057e-03 to 1.0459204554756157e-03 seconds.
Warning: Simulation tolerance relaxed to achieve convergence from 1.0459204554756157e-03 to 1.0459204554756256e-03 seconds.
Warning: Simulation tolerance relaxed to achieve convergence from 1.0459204554756256e-03 to 1.0459204554756356e-03 seconds.
Warning: Simulation tolerance relaxed to achieve convergence from 1.0459204554756356e-03 to 1.0459204554756456e-03 seconds.
Warning: Simulation tolerance relaxed to achieve convergence from 1.0459204554756456e-03 to 1.0459204554756556e-03 seconds.
Warning: Simulation tolerance relaxed to achieve convergence from 1.0459204554756955e-03 to 1.0459204554757054e-03 seconds.
Warning: Simulation tolerance relaxed to achieve convergence from 1.0459204554757054e-03 to 1.0459204554757154e-03 seconds.
Warning: Simulation tolerance relaxed to achieve convergence from 1.0459204554757154e-03 to 1.0459204554757254e-03 seconds.
Warning: Simulation tolerance relaxed to achieve convergence from 1.0459204554757254e-03 to 1.0459204554757353e-03 seconds.
Warning: Simulation tolerance relaxed to achieve convergence from 1.0459204554757353e-03 to 1.0459204554757453e-03 seconds.
Warning: Simulation tolerance relaxed to achieve convergence from 1.0459204554757453e-03 to 1.0459204554757553e-03 seconds.
Warning: Simulation tolerance relaxed to achieve convergence from 1.0459204554757553e-03 to 1.0459204554757653e-03 seconds.
Warning: Simulation tolerance relaxed to achieve convergence from 1.0459204554757653e-03 to 1.0459204554757752e-03 seconds.
Warning: Simulation tolerance relaxed to achieve convergence from 1.0459204554757752e-03 to 1.0459204554757852e-03 seconds.
Warning: Simulation tolerance relaxed to achieve convergence from 1.0459204554757852e-03 to 1.0459204554757952e-03 seconds.
Warning: Simulation tolerance relaxed to achieve convergence from 1.0459204554757952e-03 to 1.0459204554758052e-03 seconds.
Warning: Simulation tolerance relaxed to achieve convergence from 1.0459204554758052e-03 to 1.0459204554758151e-03 seconds.
Warning: Simulation tolerance relaxed to achieve convergence from 1.0459204554758151e-03 to 1.0459204554758251e-03 seconds.
Warning: Simulation tolerance relaxed to achieve convergence from 1.0459204554758251e-03 to 1.0459204554758351e-03 seconds.
Warning: Simulation tolerance relaxed to achieve convergence from 1.0459204554758351e-03 to 1.0459204554758451e-03 seconds.
Warning: Simulation tolerance relaxed to achieve convergence from 1.0459204554758451e-03 to 1.0459204554758550e-03 seconds.
Warning: Simulation tolerance relaxed to achieve convergence from 1.0459204554758550e-03 to 1.0459204554758650e-03 seconds.
Warning: Simulation tolerance relaxed to achieve convergence from 1.0459204554758650e-03 to 1.0459204554758750e-03 seconds.
Warning: Simulation tolerance relaxed to achieve convergence from 1.0459204554758750e-03 to 1.0459204554758850e-03 seconds.
Warning: Simulation tolerance relaxed to achieve convergence from 1.0459204554758850e-03 to 1.0459204554758949e-03 seconds.
Warning: Simulation tolerance relaxed to achieve convergence from 1.0459204554758949e-03 to 1.0459204554759049e-03 seconds.
Warning: Simulation tolerance relaxed to achieve convergence from 1.0459204554759049e-03 to 1.0459204554759149e-03 seconds.
Warning: Simulation tolerance relaxed to achieve convergence from 1.0459204554759149e-03 to 1.0459204554759249e-03 seconds.
Warning: Simulation tolerance relaxed to achieve convergence from 1.0459204554759249e-03 to 1.0459204554759348e-03 seconds.
Warning: Simulation tolerance relaxed to achieve convergence from 1.0459204554759348e-03 to 1.0459204554759448e-03 seconds.
Warning: Simulation tolerance relaxed to achieve convergence from 1.0459204554759448e-03 to 1.0459204554759548e-03 seconds.
Warning: Simulation tolerance relaxed to achieve convergence from 1.0459204554759548e-03 to 1.0459204554759648e-03 seconds.
Warning: Simulation tolerance relaxed to achieve convergence from 1.0459204554759648e-03 to 1.0459204554759747e-03 seconds.
Warning: Simulation tolerance relaxed to achieve convergence from 1.0459204554759747e-03 to 1.0459204554759847e-03 seconds.
Warning: Simulation tolerance relaxed to achieve convergence from 1.0459204554759847e-03 to 1.0459204554759947e-03 seconds.
Warning: Simulation tolerance relaxed to achieve convergence from 1.0459204554759947e-03 to 1.0459204554760047e-03 seconds.
Warning: Simulation tolerance relaxed to achieve convergence from 1.0459204554760047e-03 to 1.0459204554760146e-03 seconds.
Warning: Simulation tolerance relaxed to achieve convergence from 1.0459204554760346e-03 to 1.0459204554760446e-03 seconds.
Warning: Simulation tolerance relaxed to achieve convergence from 1.0459204554760446e-03 to 1.0459204554760545e-03 seconds.
Warning: Simulation tolerance relaxed to achieve convergence from 1.0459204554760545e-03 to 1.0459204554760645e-03 seconds.
Warning: Simulation tolerance relaxed to achieve convergence from 1.0459204554760645e-03 to 1.0459204554760745e-03 seconds.
Warning: Simulation tolerance relaxed to achieve convergence from 1.0459204554760745e-03 to 1.0459204554760845e-03 seconds.
Warning: Simulation tolerance relaxed to achieve convergence from 1.0459204554761044e-03 to 1.0459204554761144e-03 seconds.
Warning: Simulation tolerance relaxed to achieve convergence from 1.0459204554761144e-03 to 1.0459204554761244e-03 seconds.
Warning: Simulation tolerance relaxed to achieve convergence from 1.0459204554761244e-03 to 1.0459204554761343e-03 seconds.
Warning: Simulation tolerance relaxed to achieve convergence from 1.0459204554761343e-03 to 1.0459204554761443e-03 seconds.
Warning: Simulation tolerance relaxed to achieve convergence from 1.0459204554761443e-03 to 1.0459204554761543e-03 seconds.
Warning: Simulation tolerance relaxed to achieve convergence from 1.0459204554761742e-03 to 1.0459204554761842e-03 seconds.
Warning: Simulation tolerance relaxed to achieve convergence from 1.0459204554761842e-03 to 1.0459204554761942e-03 seconds.
Warning: Simulation tolerance relaxed to achieve convergence from 1.0459204554761942e-03 to 1.0459204554762042e-03 seconds.
Warning: Simulation tolerance relaxed to achieve convergence from 1.0459204554762042e-03 to 1.0459204554762141e-03 seconds.
Warning: Simulation tolerance relaxed to achieve convergence from 1.0459204554762141e-03 to 1.0459204554762241e-03 seconds.
Warning: Simulation tolerance relaxed to achieve convergence from 1.0459204554762241e-03 to 1.0459204554762341e-03 seconds.
Warning: Simulation tolerance relaxed to achieve convergence from 1.0459204554762540e-03 to 1.0459204554762640e-03 seconds.
Warning: Simulation tolerance relaxed to achieve convergence from 1.0459204554762840e-03 to 1.0459204554762939e-03 seconds.
Warning: Simulation tolerance relaxed to achieve convergence from 1.0459204554762939e-03 to 1.0459204554763039e-03 seconds.
Warning: Simulation tolerance relaxed to achieve convergence from 1.0459204554763039e-03 to 1.0459204554763139e-03 seconds.
Warning: Simulation tolerance relaxed to achieve convergence from 1.0459204554763139e-03 to 1.0459204554763239e-03 seconds.
Warning: Simulation tolerance relaxed to achieve convergence from 1.0459204554763239e-03 to 1.0459204554763338e-03 seconds.
Warning: Simulation tolerance relaxed to achieve convergence from 1.0459204554763338e-03 to 1.0459204554763438e-03 seconds.
Warning: Simulation tolerance relaxed to achieve convergence from 1.0459204554763438e-03 to 1.0459204554763538e-03 seconds.
Warning: Simulation tolerance relaxed to achieve convergence from 1.0459204554763538e-03 to 1.0459204554763638e-03 seconds.
Warning: Simulation tolerance relaxed to achieve convergence from 1.0459204554763638e-03 to 1.0459204554763737e-03 seconds.
Warning: Simulation tolerance relaxed to achieve convergence from 1.0459204554763737e-03 to 1.0459204554763837e-03 seconds.
Warning: Simulation tolerance relaxed to achieve convergence from 1.0459204554763837e-03 to 1.0459204554763937e-03 seconds.
Warning: Simulation tolerance relaxed to achieve convergence from 1.0459204554763937e-03 to 1.0459204554764037e-03 seconds.
Warning: Simulation tolerance relaxed to achieve convergence from 1.0459204554764236e-03 to 1.0459204554764336e-03 seconds.
Warning: Simulation tolerance relaxed to achieve convergence from 1.0459204554764336e-03 to 1.0459204554764436e-03 seconds.
Warning: Simulation tolerance relaxed to achieve convergence from 1.0459204554764436e-03 to 1.0459204554764535e-03 seconds.
Warning: Simulation tolerance relaxed to achieve convergence from 1.0459204554764735e-03 to 1.0459204554764834e-03 seconds.
Warning: Simulation tolerance relaxed to achieve convergence from 1.0459204554764834e-03 to 1.0459204554764934e-03 seconds.
Warning: Simulation tolerance relaxed to achieve convergence from 1.0459204554765134e-03 to 1.0459204554765233e-03 seconds.
Warning: Simulation tolerance relaxed to achieve convergence from 1.0459204554765233e-03 to 1.0459204554765333e-03 seconds.
Warning: Simulation tolerance relaxed to achieve convergence from 1.0459204554765333e-03 to 1.0459204554765433e-03 seconds.
Warning: Simulation tolerance relaxed to achieve convergence from 1.0459204554765433e-03 to 1.0459204554765533e-03 seconds.
Warning: Simulation tolerance relaxed to achieve convergence from 1.0459204554765533e-03 to 1.0459204554765632e-03 seconds.
Warning: Simulation tolerance relaxed to achieve convergence from 1.0459204554765632e-03 to 1.0459204554765732e-03 seconds.
Warning: Simulation tolerance relaxed to achieve convergence from 1.0459204554765732e-03 to 1.0459204554765832e-03 seconds.
Warning: Simulation tolerance relaxed to achieve convergence from 1.0459204554765832e-03 to 1.0459204554765932e-03 seconds.
Warning: Simulation tolerance relaxed to achieve convergence from 1.0459204554765932e-03 to 1.0459204554766031e-03 seconds.
Warning: Simulation tolerance relaxed to achieve convergence from 1.0459204554766031e-03 to 1.0459204554766131e-03 seconds.
Warning: Simulation tolerance relaxed to achieve convergence from 1.0459204554766131e-03 to 1.0459204554766231e-03 seconds.
Warning: Simulation tolerance relaxed to achieve convergence from 1.0459204554766231e-03 to 1.0459204554766331e-03 seconds.
Warning: Simulation tolerance relaxed to achieve convergence from 1.0459204554766331e-03 to 1.0459204554766430e-03 seconds.
Warning: Simulation tolerance relaxed to achieve convergence from 1.0459204554766430e-03 to 1.0459204554766530e-03 seconds.
Warning: Simulation tolerance relaxed to achieve convergence from 1.0459204554766530e-03 to 1.0459204554766630e-03 seconds.
Warning: Simulation tolerance relaxed to achieve convergence from 1.0459204554766630e-03 to 1.0459204554766730e-03 seconds.
Warning: Simulation tolerance relaxed to achieve convergence from 1.0459204554766929e-03 to 1.0459204554767029e-03 seconds.
Warning: Simulation tolerance relaxed to achieve convergence from 1.0459204554767029e-03 to 1.0459204554767129e-03 seconds.
Warning: Simulation tolerance relaxed to achieve convergence from 1.0459204554767328e-03 to 1.0459204554767428e-03 seconds.
Warning: Simulation tolerance relaxed to achieve convergence from 1.0459204554767428e-03 to 1.0459204554767528e-03 seconds.
Warning: Simulation tolerance relaxed to achieve convergence from 1.0459204554767528e-03 to 1.0459204554767627e-03 seconds.
Warning: Simulation tolerance relaxed to achieve convergence from 1.0459204554767627e-03 to 1.0459204554767727e-03 seconds.
Warning: Simulation tolerance relaxed to achieve convergence from 1.0459204554767727e-03 to 1.0459204554767827e-03 seconds.
Warning: Simulation tolerance relaxed to achieve convergence from 1.0459204554767827e-03 to 1.0459204554767927e-03 seconds.
Warning: Simulation tolerance relaxed to achieve convergence from 1.0459204554767927e-03 to 1.0459204554768026e-03 seconds.
Warning: Simulation tolerance relaxed to achieve convergence from 1.0459204554768026e-03 to 1.0459204554768126e-03 seconds.
Warning: Simulation tolerance relaxed to achieve convergence from 1.0459204554768126e-03 to 1.0459204554768226e-03 seconds.
Warning: Simulation tolerance relaxed to achieve convergence from 1.0459204554768226e-03 to 1.0459204554768326e-03 seconds.
Warning: Simulation tolerance relaxed to achieve convergence from 1.0459204554768326e-03 to 1.0459204554768425e-03 seconds.
Warning: Simulation tolerance relaxed to achieve convergence from 1.0459204554768425e-03 to 1.0459204554768525e-03 seconds.
Warning: Simulation tolerance relaxed to achieve convergence from 1.0459204554768525e-03 to 1.0459204554768625e-03 seconds.
Warning: Simulation tolerance relaxed to achieve convergence from 1.0459204554768625e-03 to 1.0459204554768725e-03 seconds.
Warning: Simulation tolerance relaxed to achieve convergence from 1.0459204554768725e-03 to 1.0459204554768824e-03 seconds.
Warning: Simulation tolerance relaxed to achieve convergence from 1.0459204554768824e-03 to 1.0459204554768924e-03 seconds.
Warning: Simulation tolerance relaxed to achieve convergence from 1.0459204554768924e-03 to 1.0459204554769024e-03 seconds.
Warning: Simulation tolerance relaxed to achieve convergence from 1.0459204554769024e-03 to 1.0459204554769124e-03 seconds.
Total elapsed time: 70.080 seconds.

Simulation Failed: 

Total elapsed time: 70.080 seconds.

Files loaded:
C:\Users\Usuario\Documents\LTspice\1_LTC4370_Simulations\5_LTC4370_CurrentBalancing_Si7336ADP_ThirdParty\test2.net
C:\Users\Usuario\Documents\LTspice\1_LTC4370_Simulations\5_LTC4370_CurrentBalancing_Si7336ADP_ThirdParty\Si7336ADP_HS.txt
C:\Users\Usuario\AppData\Local\LTspice\lib\sub\LTC4370.sub

