LTspice 24.1.1 for Windows
Circuit: C:\Users\Usuario\Documents\LTspice\5_LTC4370_CurrentBalancing_Si7336ADP_ThirdParty\test2.net
Start Time: Fri Oct 17 16:35:35 2025
solver = Normal
Maximum thread count: 8
tnom = 27
temp = 27
method = trap
Instance "m1:M1": Length shorter than recommended for a level 3 MOSFET.
Instance "m1:M2": Length shorter than recommended for a level 3 MOSFET.
Instance "m2:M1": Length shorter than recommended for a level 3 MOSFET.
Instance "m2:M2": Length shorter than recommended for a level 3 MOSFET.
Direct Newton iteration failed to find .op point.  (Use ".option noopiter" to skip.)
Starting Gmin stepping
Gmin = 10
Gmin = 1.07374
Gmin = 0.115292
Gmin = 0.0123794
Gmin = 0.00132923
Gmin = 0.000142725
Gmin = 1.5325e-05
Gmin = 1.6455e-06
Gmin = 1.76685e-07
Gmin = 1.89714e-08
Gmin = 2.03704e-09
Gmin = 2.18725e-10
Gmin = 2.34854e-11
Gmin = 2.52173e-12
Gmin = 2.70769e-13
Gmin = 0
Gmin stepping succeeded in finding the operating point.

Changing Tseed to 1e-08
Changing Tseed to 1e-10
Changing Tseed to 1e-07
Changing Tseed to 1e-11
Changing Tseed to 1e-06
Changing Tseed to 1e-12
Total elapsed time: 10.323 seconds.

Files loaded:
C:\Users\Usuario\Documents\LTspice\5_LTC4370_CurrentBalancing_Si7336ADP_ThirdParty\test2.net
C:\Users\Usuario\Documents\LTspice\5_LTC4370_CurrentBalancing_Si7336ADP_ThirdParty\Si7336ADP_HS.txt
C:\Users\Usuario\AppData\Local\LTspice\lib\sub\LTC4370.sub

