LTspice 24.1.1 for Windows
Circuit: C:\Users\Usuario\Documents\LTspice\1_LTC4370_Simulations\2_LTC4370_CurrentBalancingController_Si2342DS_nmos\LTC4370.net
Start Time: Tue Oct 21 16:13:53 2025
solver = Normal
Maximum thread count: 8
tnom = 27
temp = 27
method = trap
Model "nmos": Oxide thickness thinner than recommended for a level 3 MOSFET.
Model "pmos": Oxide thickness thinner than recommended for a level 3 MOSFET.
Model "nmos": Oxide thickness thinner than recommended for a level 3 MOSFET.
Model "pmos": Oxide thickness thinner than recommended for a level 3 MOSFET.
Instance "m1:M1": Length shorter than recommended for a level 3 MOSFET.
Instance "m1:M2": Length shorter than recommended for a level 3 MOSFET.
Instance "m2:M1": Length shorter than recommended for a level 3 MOSFET.
Instance "m2:M2": Length shorter than recommended for a level 3 MOSFET.
Direct Newton iteration failed to find .op point.  (Use ".option noopiter" to skip.)
Starting Gmin stepping
Gmin = 10
Gmin = 1.07374
vernier = 0.5
Gmin = 0.180144
vernier = 0.666667
Gmin = 0.0462512
vernier = 0.888888
vernier = 1
Gmin = 0.006089
Gmin = 0.000653801
Gmin = 7.02013e-05
Gmin = 7.53781e-06
Gmin = 8.09366e-07
Gmin = 8.6905e-08
Gmin = 9.33136e-09
Gmin = 1.00195e-09
Gmin = 1.07583e-10
Gmin = 1.15517e-11
Gmin = 1.24035e-12
Gmin = 1.33182e-13
Gmin = 0
Gmin stepping succeeded in finding the operating point.

Changing Tseed to 1e-08
Changing Tseed to 1e-10
Warning: Simulation tolerance relaxed to achieve convergence from 1.8201234209771525e-07 to 1.8201234209871526e-07 seconds.
Warning: Simulation tolerance relaxed to achieve convergence from 1.8201234209871526e-07 to 1.8201234209971526e-07 seconds.
Warning: Simulation tolerance relaxed to achieve convergence from 1.8201243066271530e-07 to 1.8201243066371530e-07 seconds.
Warning: Simulation tolerance relaxed to achieve convergence from 1.8201243066371530e-07 to 1.8201243066471530e-07 seconds.
Warning: Simulation tolerance relaxed to achieve convergence from 1.8201284611671532e-07 to 1.8201284611771532e-07 seconds.
Warning: Simulation tolerance relaxed to achieve convergence from 1.8201284612471533e-07 to 1.8201284612571533e-07 seconds.
Warning: Simulation tolerance relaxed to achieve convergence from 1.8201284613371535e-07 to 1.8201284613471535e-07 seconds.
Warning: Simulation tolerance relaxed to achieve convergence from 1.8201284613471535e-07 to 1.8201284613571535e-07 seconds.
Warning: Simulation tolerance relaxed to achieve convergence from 1.8201344699071534e-07 to 1.8201344699171534e-07 seconds.
Warning: Simulation tolerance relaxed to achieve convergence from 1.8201344703471534e-07 to 1.8201344703571534e-07 seconds.
Warning: Simulation tolerance relaxed to achieve convergence from 1.8201344703571534e-07 to 1.8201344703671534e-07 seconds.
Warning: Simulation tolerance relaxed to achieve convergence from 1.8201418991965448e-07 to 1.8201418992065449e-07 seconds.
Warning: Simulation tolerance relaxed to achieve convergence from 1.8201487630565452e-07 to 1.8201487630665452e-07 seconds.
Warning: Simulation tolerance relaxed to achieve convergence from 1.8201561122251629e-07 to 1.8201561122351630e-07 seconds.
Warning: Simulation tolerance relaxed to achieve convergence from 1.8201636853182159e-07 to 1.8201636853282159e-07 seconds.
Warning: Simulation tolerance relaxed to achieve convergence from 1.8201636859482160e-07 to 1.8201636859582160e-07 seconds.
Warning: Simulation tolerance relaxed to achieve convergence from 1.8201722040322724e-07 to 1.8201722040422724e-07 seconds.
Warning: Simulation tolerance relaxed to achieve convergence from 1.8201722041222726e-07 to 1.8201722041322726e-07 seconds.
Warning: Simulation tolerance relaxed to achieve convergence from 1.8201722047622727e-07 to 1.8201722047722727e-07 seconds.
Warning: Simulation tolerance relaxed to achieve convergence from 1.8201722054322728e-07 to 1.8201722054422728e-07 seconds.
Warning: Simulation tolerance relaxed to achieve convergence from 1.8201722055322730e-07 to 1.8201722055422730e-07 seconds.
Warning: Simulation tolerance relaxed to achieve convergence from 1.8201722062722730e-07 to 1.8201722062822730e-07 seconds.
Warning: Simulation tolerance relaxed to achieve convergence from 1.8201839088467302e-07 to 1.8201839088567302e-07 seconds.
Warning: Simulation tolerance relaxed to achieve convergence from 1.8201839089367304e-07 to 1.8201839089467304e-07 seconds.
Warning: Simulation tolerance relaxed to achieve convergence from 1.8201839093867304e-07 to 1.8201839093967304e-07 seconds.
Warning: Simulation tolerance relaxed to achieve convergence from 1.8201839094767306e-07 to 1.8201839094867306e-07 seconds.
Warning: Simulation tolerance relaxed to achieve convergence from 1.8201839101267307e-07 to 1.8201839101367307e-07 seconds.
Warning: Simulation tolerance relaxed to achieve convergence from 1.8201839108067308e-07 to 1.8201839108167309e-07 seconds.
Warning: Simulation tolerance relaxed to achieve convergence from 1.8201839115367308e-07 to 1.8201839115467308e-07 seconds.
Warning: Simulation tolerance relaxed to achieve convergence from 1.8201957687183694e-07 to 1.8201957687283694e-07 seconds.
Warning: Simulation tolerance relaxed to achieve convergence from 1.8201957691683694e-07 to 1.8201957691783694e-07 seconds.
Warning: Simulation tolerance relaxed to achieve convergence from 1.8202039280339461e-07 to 1.8202039280439461e-07 seconds.
Warning: Simulation tolerance relaxed to achieve convergence from 1.8202039287439460e-07 to 1.8202039287539461e-07 seconds.
Warning: Simulation tolerance relaxed to achieve convergence from 1.8202039294839460e-07 to 1.8202039294939461e-07 seconds.
Warning: Simulation tolerance relaxed to achieve convergence from 1.8202039302539461e-07 to 1.8202039302639461e-07 seconds.
Warning: Simulation tolerance relaxed to achieve convergence from 1.8202039310439462e-07 to 1.8202039310539462e-07 seconds.
Warning: Simulation tolerance relaxed to achieve convergence from 1.8202039312239463e-07 to 1.8202039312339463e-07 seconds.
Warning: Simulation tolerance relaxed to achieve convergence from 1.8202039321139463e-07 to 1.8202039321239463e-07 seconds.
Warning: Simulation tolerance relaxed to achieve convergence from 1.8202039323039464e-07 to 1.8202039323139464e-07 seconds.
Warning: Simulation tolerance relaxed to achieve convergence from 1.8202039336739467e-07 to 1.8202039336839467e-07 seconds.
Warning: Simulation tolerance relaxed to achieve convergence from 1.8202039351639470e-07 to 1.8202039351739470e-07 seconds.
Warning: Simulation tolerance relaxed to achieve convergence from 1.8202039367339472e-07 to 1.8202039367439472e-07 seconds.
Warning: Simulation tolerance relaxed to achieve convergence from 1.8202039383739475e-07 to 1.8202039383839475e-07 seconds.
Warning: Simulation tolerance relaxed to achieve convergence from 1.8202039402139477e-07 to 1.8202039402239477e-07 seconds.
Warning: Simulation tolerance relaxed to achieve convergence from 1.8202039434539477e-07 to 1.8202039434639477e-07 seconds.
Warning: Simulation tolerance relaxed to achieve convergence from 1.8202039462139479e-07 to 1.8202039462239479e-07 seconds.
Warning: Simulation tolerance relaxed to achieve convergence from 1.8202039492639481e-07 to 1.8202039492739481e-07 seconds.
Warning: Simulation tolerance relaxed to achieve convergence from 1.8202039525239482e-07 to 1.8202039525339482e-07 seconds.
Warning: Simulation tolerance relaxed to achieve convergence from 1.8202039576839485e-07 to 1.8202039576939485e-07 seconds.
Warning: Simulation tolerance relaxed to achieve convergence from 1.8202039635439490e-07 to 1.8202039635539490e-07 seconds.
Warning: Simulation tolerance relaxed to achieve convergence from 1.8202039700539493e-07 to 1.8202039700639494e-07 seconds.
Warning: Simulation tolerance relaxed to achieve convergence from 1.8202039777339497e-07 to 1.8202039777439497e-07 seconds.
Warning: Simulation tolerance relaxed to achieve convergence from 1.8202039898639499e-07 to 1.8202039898739499e-07 seconds.
Warning: Simulation tolerance relaxed to achieve convergence from 1.8202040115939501e-07 to 1.8202040116039502e-07 seconds.
Warning: Simulation tolerance relaxed to achieve convergence from 1.8202040578439502e-07 to 1.8202040578539502e-07 seconds.
Warning: Simulation tolerance relaxed to achieve convergence from 1.8202207375939504e-07 to 1.8202207376039504e-07 seconds.
Warning: Simulation tolerance relaxed to achieve convergence from 1.8202207376639505e-07 to 1.8202207376739506e-07 seconds.
Warning: Simulation tolerance relaxed to achieve convergence from 1.8202207377339507e-07 to 1.8202207377439507e-07 seconds.
Warning: Simulation tolerance relaxed to achieve convergence from 1.8202207380839508e-07 to 1.8202207380939508e-07 seconds.
Warning: Simulation tolerance relaxed to achieve convergence from 1.8202207381539509e-07 to 1.8202207381639509e-07 seconds.
Warning: Simulation tolerance relaxed to achieve convergence from 1.8202207385339510e-07 to 1.8202207385439511e-07 seconds.
Warning: Simulation tolerance relaxed to achieve convergence from 1.8202297878439517e-07 to 1.8202297878539517e-07 seconds.
Warning: Simulation tolerance relaxed to achieve convergence from 1.8202297884839518e-07 to 1.8202297884939518e-07 seconds.
Warning: Simulation tolerance relaxed to achieve convergence from 1.8202297891439519e-07 to 1.8202297891539519e-07 seconds.
Warning: Simulation tolerance relaxed to achieve convergence from 1.8202297892939519e-07 to 1.8202297893039519e-07 seconds.
Warning: Simulation tolerance relaxed to achieve convergence from 1.8202297900139519e-07 to 1.8202297900239519e-07 seconds.
Warning: Simulation tolerance relaxed to achieve convergence from 1.8202297901739519e-07 to 1.8202297901839519e-07 seconds.
Warning: Simulation tolerance relaxed to achieve convergence from 1.8202297909439520e-07 to 1.8202297909539520e-07 seconds.
Warning: Simulation tolerance relaxed to achieve convergence from 1.8202297911139520e-07 to 1.8202297911239520e-07 seconds.
Warning: Simulation tolerance relaxed to achieve convergence from 1.8202297919839520e-07 to 1.8202297919939520e-07 seconds.
Warning: Simulation tolerance relaxed to achieve convergence from 1.8202297932639522e-07 to 1.8202297932739522e-07 seconds.
Warning: Simulation tolerance relaxed to achieve convergence from 1.8202297946039525e-07 to 1.8202297946139525e-07 seconds.
Warning: Simulation tolerance relaxed to achieve convergence from 1.8202297948139526e-07 to 1.8202297948239526e-07 seconds.
Warning: Simulation tolerance relaxed to achieve convergence from 1.8202297963139529e-07 to 1.8202297963239529e-07 seconds.
Warning: Simulation tolerance relaxed to achieve convergence from 1.8202297966339530e-07 to 1.8202297966439530e-07 seconds.
Warning: Simulation tolerance relaxed to achieve convergence from 1.8202297982639533e-07 to 1.8202297982739533e-07 seconds.
Warning: Simulation tolerance relaxed to achieve convergence from 1.8202298001039534e-07 to 1.8202298001139534e-07 seconds.
Warning: Simulation tolerance relaxed to achieve convergence from 1.8202298027039536e-07 to 1.8202298027139536e-07 seconds.
Warning: Simulation tolerance relaxed to achieve convergence from 1.8202298055739537e-07 to 1.8202298055839537e-07 seconds.
Warning: Simulation tolerance relaxed to achieve convergence from 1.8202298086439540e-07 to 1.8202298086539540e-07 seconds.
Warning: Simulation tolerance relaxed to achieve convergence from 1.8202298093239541e-07 to 1.8202298093339542e-07 seconds.
Warning: Simulation tolerance relaxed to achieve convergence from 1.8202298144639544e-07 to 1.8202298144739544e-07 seconds.
Warning: Simulation tolerance relaxed to achieve convergence from 1.8202298204339549e-07 to 1.8202298204439549e-07 seconds.
Warning: Simulation tolerance relaxed to achieve convergence from 1.8202298275439552e-07 to 1.8202298275539553e-07 seconds.
Warning: Simulation tolerance relaxed to achieve convergence from 1.8202298386139554e-07 to 1.8202298386239554e-07 seconds.
Warning: Simulation tolerance relaxed to achieve convergence from 1.8202298596039556e-07 to 1.8202298596139556e-07 seconds.
Warning: Simulation tolerance relaxed to achieve convergence from 1.8202513890136121e-07 to 1.8202513890236121e-07 seconds.
Warning: Simulation tolerance relaxed to achieve convergence from 1.8202513890536121e-07 to 1.8202513890636121e-07 seconds.
Warning: Simulation tolerance relaxed to achieve convergence from 1.8202513890936122e-07 to 1.8202513891036122e-07 seconds.
Warning: Simulation tolerance relaxed to achieve convergence from 1.8202513891336123e-07 to 1.8202513891436123e-07 seconds.
Warning: Simulation tolerance relaxed to achieve convergence from 1.8202513891436123e-07 to 1.8202513891536123e-07 seconds.
Warning: Simulation tolerance relaxed to achieve convergence from 1.8202555540836122e-07 to 1.8202555540936122e-07 seconds.
Warning: Simulation tolerance relaxed to achieve convergence from 1.8202555547536123e-07 to 1.8202555547636124e-07 seconds.
Warning: Simulation tolerance relaxed to achieve convergence from 1.8202555554636123e-07 to 1.8202555554736123e-07 seconds.
Warning: Simulation tolerance relaxed to achieve convergence from 1.8202555562036123e-07 to 1.8202555562136123e-07 seconds.
Warning: Simulation tolerance relaxed to achieve convergence from 1.8202555563036125e-07 to 1.8202555563136125e-07 seconds.
Warning: Simulation tolerance relaxed to achieve convergence from 1.8202555570836126e-07 to 1.8202555570936126e-07 seconds.
Warning: Simulation tolerance relaxed to achieve convergence from 1.8202555571836128e-07 to 1.8202555571936128e-07 seconds.
Warning: Simulation tolerance relaxed to achieve convergence from 1.8202555580636128e-07 to 1.8202555580736128e-07 seconds.
Warning: Simulation tolerance relaxed to achieve convergence from 1.8202555593536130e-07 to 1.8202555593636130e-07 seconds.
Warning: Simulation tolerance relaxed to achieve convergence from 1.8202555595036130e-07 to 1.8202555595136130e-07 seconds.
Warning: Simulation tolerance relaxed to achieve convergence from 1.8202555609336132e-07 to 1.8202555609436132e-07 seconds.
Warning: Simulation tolerance relaxed to achieve convergence from 1.8202555616136133e-07 to 1.8202555616236134e-07 seconds.
Warning: Simulation tolerance relaxed to achieve convergence from 1.8202555617836134e-07 to 1.8202555617936134e-07 seconds.
Warning: Simulation tolerance relaxed to achieve convergence from 1.8202555634036137e-07 to 1.8202555634136137e-07 seconds.
Warning: Simulation tolerance relaxed to achieve convergence from 1.8202555642036138e-07 to 1.8202555642136138e-07 seconds.
Warning: Simulation tolerance relaxed to achieve convergence from 1.8202555650836138e-07 to 1.8202555650936138e-07 seconds.
Warning: Simulation tolerance relaxed to achieve convergence from 1.8202555677736139e-07 to 1.8202555677836139e-07 seconds.
Warning: Simulation tolerance relaxed to achieve convergence from 1.8202555706936141e-07 to 1.8202555707036141e-07 seconds.
Warning: Simulation tolerance relaxed to achieve convergence from 1.8202555738136142e-07 to 1.8202555738236142e-07 seconds.
Warning: Simulation tolerance relaxed to achieve convergence from 1.8202555741736143e-07 to 1.8202555741836143e-07 seconds.
Warning: Simulation tolerance relaxed to achieve convergence from 1.8202555759336145e-07 to 1.8202555759436146e-07 seconds.
Warning: Simulation tolerance relaxed to achieve convergence from 1.8202555814236147e-07 to 1.8202555814336147e-07 seconds.
Warning: Simulation tolerance relaxed to achieve convergence from 1.8202555818836147e-07 to 1.8202555818936147e-07 seconds.
Warning: Simulation tolerance relaxed to achieve convergence from 1.8202555848936148e-07 to 1.8202555849036148e-07 seconds.
Warning: Simulation tolerance relaxed to achieve convergence from 1.8202555856136148e-07 to 1.8202555856236148e-07 seconds.
Warning: Simulation tolerance relaxed to achieve convergence from 1.8202555892936151e-07 to 1.8202555893036151e-07 seconds.
Warning: Simulation tolerance relaxed to achieve convergence from 1.8202556012936153e-07 to 1.8202556013036153e-07 seconds.
Warning: Simulation tolerance relaxed to achieve convergence from 1.8202556048936157e-07 to 1.8202556049036157e-07 seconds.
Warning: Simulation tolerance relaxed to achieve convergence from 1.8202556290836162e-07 to 1.8202556290936162e-07 seconds.
Warning: Simulation tolerance relaxed to achieve convergence from 1.8202556500036163e-07 to 1.8202556500136163e-07 seconds.
Warning: Simulation tolerance relaxed to achieve convergence from 1.8202556941336165e-07 to 1.8202556941436165e-07 seconds.
Warning: Simulation tolerance relaxed to achieve convergence from 1.8202659426836169e-07 to 1.8202659426936169e-07 seconds.
Warning: Simulation tolerance relaxed to achieve convergence from 1.8202659428736170e-07 to 1.8202659428836170e-07 seconds.
Warning: Simulation tolerance relaxed to achieve convergence from 1.8202659430836171e-07 to 1.8202659430936171e-07 seconds.
Warning: Simulation tolerance relaxed to achieve convergence from 1.8202659431836173e-07 to 1.8202659431936173e-07 seconds.
Warning: Simulation tolerance relaxed to achieve convergence from 1.8202659432936175e-07 to 1.8202659433036175e-07 seconds.
Warning: Simulation tolerance relaxed to achieve convergence from 1.8202659433936177e-07 to 1.8202659434036177e-07 seconds.
Warning: Simulation tolerance relaxed to achieve convergence from 1.8202659434936179e-07 to 1.8202659435036179e-07 seconds.
Warning: Simulation tolerance relaxed to achieve convergence from 1.8202659435836180e-07 to 1.8202659435936180e-07 seconds.
Warning: Simulation tolerance relaxed to achieve convergence from 1.8202659436736182e-07 to 1.8202659436836182e-07 seconds.
Warning: Simulation tolerance relaxed to achieve convergence from 1.8202659440336183e-07 to 1.8202659440436183e-07 seconds.
Warning: Simulation tolerance relaxed to achieve convergence from 1.8202659441836183e-07 to 1.8202659441936183e-07 seconds.
Warning: Simulation tolerance relaxed to achieve convergence from 1.8202659443536183e-07 to 1.8202659443636184e-07 seconds.
Warning: Simulation tolerance relaxed to achieve convergence from 1.8202659445036184e-07 to 1.8202659445136184e-07 seconds.
Warning: Simulation tolerance relaxed to achieve convergence from 1.8202659446636184e-07 to 1.8202659446736184e-07 seconds.
Warning: Simulation tolerance relaxed to achieve convergence from 1.8202659448436184e-07 to 1.8202659448536185e-07 seconds.
Warning: Simulation tolerance relaxed to achieve convergence from 1.8202659449936184e-07 to 1.8202659450036185e-07 seconds.
Warning: Simulation tolerance relaxed to achieve convergence from 1.8202659451936185e-07 to 1.8202659452036186e-07 seconds.
Warning: Simulation tolerance relaxed to achieve convergence from 1.8202659456636186e-07 to 1.8202659456736186e-07 seconds.
Warning: Simulation tolerance relaxed to achieve convergence from 1.8202659457736188e-07 to 1.8202659457836188e-07 seconds.
Warning: Simulation tolerance relaxed to achieve convergence from 1.8202659460036189e-07 to 1.8202659460136190e-07 seconds.
Warning: Simulation tolerance relaxed to achieve convergence from 1.8202659462136191e-07 to 1.8202659462236191e-07 seconds.
Warning: Simulation tolerance relaxed to achieve convergence from 1.8202659466936191e-07 to 1.8202659467036191e-07 seconds.
Warning: Simulation tolerance relaxed to achieve convergence from 1.8202659469336193e-07 to 1.8202659469436193e-07 seconds.
Warning: Simulation tolerance relaxed to achieve convergence from 1.8202659473636193e-07 to 1.8202659473736193e-07 seconds.
Warning: Simulation tolerance relaxed to achieve convergence from 1.8202659477236194e-07 to 1.8202659477336194e-07 seconds.
Warning: Simulation tolerance relaxed to achieve convergence from 1.8202659484736194e-07 to 1.8202659484836194e-07 seconds.
Warning: Simulation tolerance relaxed to achieve convergence from 1.8202659492536195e-07 to 1.8202659492636195e-07 seconds.
Warning: Simulation tolerance relaxed to achieve convergence from 1.8202659509036198e-07 to 1.8202659509136199e-07 seconds.
Warning: Simulation tolerance relaxed to achieve convergence from 1.8202659524336202e-07 to 1.8202659524436202e-07 seconds.
Warning: Simulation tolerance relaxed to achieve convergence from 1.8202659537936205e-07 to 1.8202659538036206e-07 seconds.
Warning: Simulation tolerance relaxed to achieve convergence from 1.8202659568636208e-07 to 1.8202659568736208e-07 seconds.
Warning: Simulation tolerance relaxed to achieve convergence from 1.8202659674436211e-07 to 1.8202659674536211e-07 seconds.
Warning: Simulation tolerance relaxed to achieve convergence from 1.8202659790536214e-07 to 1.8202659790636214e-07 seconds.
Warning: Simulation tolerance relaxed to achieve convergence from 1.8202758023736217e-07 to 1.8202758023836217e-07 seconds.
Warning: Simulation tolerance relaxed to achieve convergence from 1.8202758024736219e-07 to 1.8202758024836219e-07 seconds.
Warning: Simulation tolerance relaxed to achieve convergence from 1.8202758025536220e-07 to 1.8202758025636220e-07 seconds.
Warning: Simulation tolerance relaxed to achieve convergence from 1.8202758026136221e-07 to 1.8202758026236221e-07 seconds.
Warning: Simulation tolerance relaxed to achieve convergence from 1.8202758027036223e-07 to 1.8202758027136223e-07 seconds.
Warning: Simulation tolerance relaxed to achieve convergence from 1.8202758028136225e-07 to 1.8202758028236225e-07 seconds.
Warning: Simulation tolerance relaxed to achieve convergence from 1.8202758028936226e-07 to 1.8202758029036226e-07 seconds.
Warning: Simulation tolerance relaxed to achieve convergence from 1.8202758030436226e-07 to 1.8202758030536227e-07 seconds.
Warning: Simulation tolerance relaxed to achieve convergence from 1.8202758032136227e-07 to 1.8202758032236227e-07 seconds.
Warning: Simulation tolerance relaxed to achieve convergence from 1.8202758033736227e-07 to 1.8202758033836227e-07 seconds.
Warning: Simulation tolerance relaxed to achieve convergence from 1.8202758034836229e-07 to 1.8202758034936229e-07 seconds.
Warning: Simulation tolerance relaxed to achieve convergence from 1.8202758035936231e-07 to 1.8202758036036231e-07 seconds.
Warning: Simulation tolerance relaxed to achieve convergence from 1.8202758037836232e-07 to 1.8202758037936232e-07 seconds.
Warning: Simulation tolerance relaxed to achieve convergence from 1.8202758039436232e-07 to 1.8202758039536232e-07 seconds.
Warning: Simulation tolerance relaxed to achieve convergence from 1.8202758040336234e-07 to 1.8202758040436234e-07 seconds.
Warning: Simulation tolerance relaxed to achieve convergence from 1.8202758044636233e-07 to 1.8202758044736234e-07 seconds.
Warning: Simulation tolerance relaxed to achieve convergence from 1.8202758048536235e-07 to 1.8202758048636235e-07 seconds.
Warning: Simulation tolerance relaxed to achieve convergence from 1.8202758054836236e-07 to 1.8202758054936236e-07 seconds.
Warning: Simulation tolerance relaxed to achieve convergence from 1.8202758058036236e-07 to 1.8202758058136237e-07 seconds.
Warning: Simulation tolerance relaxed to achieve convergence from 1.8202758060336238e-07 to 1.8202758060436238e-07 seconds.
Warning: Simulation tolerance relaxed to achieve convergence from 1.8202758063736239e-07 to 1.8202758063836239e-07 seconds.
Warning: Simulation tolerance relaxed to achieve convergence from 1.8202758071836240e-07 to 1.8202758071936240e-07 seconds.
Warning: Simulation tolerance relaxed to achieve convergence from 1.8202758081036241e-07 to 1.8202758081136241e-07 seconds.
Warning: Simulation tolerance relaxed to achieve convergence from 1.8202758088736241e-07 to 1.8202758088836242e-07 seconds.
Warning: Simulation tolerance relaxed to achieve convergence from 1.8202758106436244e-07 to 1.8202758106536244e-07 seconds.
Warning: Simulation tolerance relaxed to achieve convergence from 1.8202758124936246e-07 to 1.8202758125036246e-07 seconds.
Warning: Simulation tolerance relaxed to achieve convergence from 1.8202758183236250e-07 to 1.8202758183336251e-07 seconds.
Warning: Simulation tolerance relaxed to achieve convergence from 1.8202758254936253e-07 to 1.8202758255036253e-07 seconds.
Warning: Simulation tolerance relaxed to achieve convergence from 1.8202758379736255e-07 to 1.8202758379836256e-07 seconds.
Warning: Simulation tolerance relaxed to achieve convergence from 1.8202758496536257e-07 to 1.8202758496636257e-07 seconds.
Warning: Simulation tolerance relaxed to achieve convergence from 1.8202758619736260e-07 to 1.8202758619836260e-07 seconds.
Warning: Simulation tolerance relaxed to achieve convergence from 1.8202848048536265e-07 to 1.8202848048636265e-07 seconds.
Warning: Simulation tolerance relaxed to achieve convergence from 1.8202848055936265e-07 to 1.8202848056036265e-07 seconds.
Warning: Simulation tolerance relaxed to achieve convergence from 1.8202848059636267e-07 to 1.8202848059736267e-07 seconds.
Warning: Simulation tolerance relaxed to achieve convergence from 1.8202848067536268e-07 to 1.8202848067636268e-07 seconds.
Warning: Simulation tolerance relaxed to achieve convergence from 1.8202848068536269e-07 to 1.8202848068636270e-07 seconds.
Warning: Simulation tolerance relaxed to achieve convergence from 1.8202848072836269e-07 to 1.8202848072936269e-07 seconds.
Warning: Simulation tolerance relaxed to achieve convergence from 1.8202848077336269e-07 to 1.8202848077436270e-07 seconds.
Warning: Simulation tolerance relaxed to achieve convergence from 1.8202848078836270e-07 to 1.8202848078936270e-07 seconds.
Warning: Simulation tolerance relaxed to achieve convergence from 1.8202848085436271e-07 to 1.8202848085536271e-07 seconds.
Warning: Simulation tolerance relaxed to achieve convergence from 1.8202848087136271e-07 to 1.8202848087236271e-07 seconds.
Warning: Simulation tolerance relaxed to achieve convergence from 1.8202848094436271e-07 to 1.8202848094536271e-07 seconds.
Warning: Simulation tolerance relaxed to achieve convergence from 1.8202848096236272e-07 to 1.8202848096336272e-07 seconds.
Warning: Simulation tolerance relaxed to achieve convergence from 1.8202848114136275e-07 to 1.8202848114236275e-07 seconds.
Warning: Simulation tolerance relaxed to achieve convergence from 1.8202848133036277e-07 to 1.8202848133136277e-07 seconds.
Warning: Simulation tolerance relaxed to achieve convergence from 1.8202848159836278e-07 to 1.8202848159936278e-07 seconds.
Warning: Simulation tolerance relaxed to achieve convergence from 1.8202848188936280e-07 to 1.8202848189036280e-07 seconds.
Warning: Simulation tolerance relaxed to achieve convergence from 1.8202848192236281e-07 to 1.8202848192336281e-07 seconds.
Warning: Simulation tolerance relaxed to achieve convergence from 1.8202848200236282e-07 to 1.8202848200336282e-07 seconds.
Warning: Simulation tolerance relaxed to achieve convergence from 1.8202848236336286e-07 to 1.8202848236436286e-07 seconds.
Warning: Simulation tolerance relaxed to achieve convergence from 1.8202848255036288e-07 to 1.8202848255136288e-07 seconds.
Warning: Simulation tolerance relaxed to achieve convergence from 1.8202848259536288e-07 to 1.8202848259636289e-07 seconds.
Warning: Simulation tolerance relaxed to achieve convergence from 1.8202848323436292e-07 to 1.8202848323536293e-07 seconds.
Warning: Simulation tolerance relaxed to achieve convergence from 1.8202848330636292e-07 to 1.8202848330736292e-07 seconds.
Warning: Simulation tolerance relaxed to achieve convergence from 1.8202848433736296e-07 to 1.8202848433836296e-07 seconds.
Warning: Simulation tolerance relaxed to achieve convergence from 1.8202848491336299e-07 to 1.8202848491436299e-07 seconds.
Warning: Simulation tolerance relaxed to achieve convergence from 1.8202848633236301e-07 to 1.8202848633336301e-07 seconds.
Warning: Simulation tolerance relaxed to achieve convergence from 1.8202848875936304e-07 to 1.8202848876036304e-07 seconds.
Warning: Simulation tolerance relaxed to achieve convergence from 1.8202849026436308e-07 to 1.8202849026536309e-07 seconds.
Warning: Simulation tolerance relaxed to achieve convergence from 1.8202849997136309e-07 to 1.8202849997236310e-07 seconds.
Warning: Simulation tolerance relaxed to achieve convergence from 1.8202927395536309e-07 to 1.8202927395636310e-07 seconds.
Warning: Simulation tolerance relaxed to achieve convergence from 1.8202927396636311e-07 to 1.8202927396736312e-07 seconds.
Warning: Simulation tolerance relaxed to achieve convergence from 1.8202927409736314e-07 to 1.8202927409836314e-07 seconds.
Warning: Simulation tolerance relaxed to achieve convergence from 1.8202927423436317e-07 to 1.8202927423536318e-07 seconds.
Warning: Simulation tolerance relaxed to achieve convergence from 1.8202927438336320e-07 to 1.8202927438436321e-07 seconds.
Warning: Simulation tolerance relaxed to achieve convergence from 1.8202927453936322e-07 to 1.8202927454036322e-07 seconds.
Warning: Simulation tolerance relaxed to achieve convergence from 1.8202927470236325e-07 to 1.8202927470336325e-07 seconds.
Warning: Simulation tolerance relaxed to achieve convergence from 1.8202927488236328e-07 to 1.8202927488336329e-07 seconds.
Warning: Simulation tolerance relaxed to achieve convergence from 1.8202927507336331e-07 to 1.8202927507436331e-07 seconds.
Warning: Simulation tolerance relaxed to achieve convergence from 1.8202927534436332e-07 to 1.8202927534536332e-07 seconds.
Warning: Simulation tolerance relaxed to achieve convergence from 1.8202927564136333e-07 to 1.8202927564236333e-07 seconds.
Warning: Simulation tolerance relaxed to achieve convergence from 1.8202927595636334e-07 to 1.8202927595736334e-07 seconds.
Warning: Simulation tolerance relaxed to achieve convergence from 1.8202927631036337e-07 to 1.8202927631136337e-07 seconds.
Warning: Simulation tolerance relaxed to achieve convergence from 1.8202927683936340e-07 to 1.8202927684036340e-07 seconds.
Warning: Simulation tolerance relaxed to achieve convergence from 1.8202927692036341e-07 to 1.8202927692136341e-07 seconds.
Warning: Simulation tolerance relaxed to achieve convergence from 1.8202927701136342e-07 to 1.8202927701236342e-07 seconds.
Warning: Simulation tolerance relaxed to achieve convergence from 1.8202927771936345e-07 to 1.8202927772036345e-07 seconds.
Warning: Simulation tolerance relaxed to achieve convergence from 1.8202927877236347e-07 to 1.8202927877336347e-07 seconds.
Warning: Simulation tolerance relaxed to achieve convergence from 1.8202928002836351e-07 to 1.8202928002936351e-07 seconds.
Warning: Simulation tolerance relaxed to achieve convergence from 1.8202928223636355e-07 to 1.8202928223736355e-07 seconds.
Warning: Simulation tolerance relaxed to achieve convergence from 1.8202928657536357e-07 to 1.8202928657636357e-07 seconds.
Warning: Simulation tolerance relaxed to achieve convergence from 1.8203028353736357e-07 to 1.8203028353836357e-07 seconds.
Warning: Simulation tolerance relaxed to achieve convergence from 1.8203080895112193e-07 to 1.8203080895212193e-07 seconds.
Warning: Simulation tolerance relaxed to achieve convergence from 1.8203080898912195e-07 to 1.8203080899012195e-07 seconds.
Warning: Simulation tolerance relaxed to achieve convergence from 1.8203080899712196e-07 to 1.8203080899812196e-07 seconds.
Warning: Simulation tolerance relaxed to achieve convergence from 1.8203080903712198e-07 to 1.8203080903812198e-07 seconds.
Warning: Simulation tolerance relaxed to achieve convergence from 1.8203080908012198e-07 to 1.8203080908112198e-07 seconds.
Warning: Simulation tolerance relaxed to achieve convergence from 1.8203080908912199e-07 to 1.8203080909012200e-07 seconds.
Warning: Simulation tolerance relaxed to achieve convergence from 1.8203080911012200e-07 to 1.8203080911112201e-07 seconds.
Warning: Simulation tolerance relaxed to achieve convergence from 1.8203080912012202e-07 to 1.8203080912112202e-07 seconds.
Warning: Simulation tolerance relaxed to achieve convergence from 1.8203080918512203e-07 to 1.8203080918612204e-07 seconds.
Warning: Simulation tolerance relaxed to achieve convergence from 1.8203080925312205e-07 to 1.8203080925412205e-07 seconds.
Warning: Simulation tolerance relaxed to achieve convergence from 1.8203080932512205e-07 to 1.8203080932612205e-07 seconds.
Warning: Simulation tolerance relaxed to achieve convergence from 1.8203080933412206e-07 to 1.8203080933512207e-07 seconds.
Warning: Simulation tolerance relaxed to achieve convergence from 1.8203080941112207e-07 to 1.8203080941212207e-07 seconds.
Warning: Simulation tolerance relaxed to achieve convergence from 1.8203080949112208e-07 to 1.8203080949212209e-07 seconds.
Warning: Simulation tolerance relaxed to achieve convergence from 1.8203080957812208e-07 to 1.8203080957912208e-07 seconds.
Warning: Simulation tolerance relaxed to achieve convergence from 1.8203080970512210e-07 to 1.8203080970612210e-07 seconds.
Warning: Simulation tolerance relaxed to achieve convergence from 1.8203080984012213e-07 to 1.8203080984112213e-07 seconds.
Warning: Simulation tolerance relaxed to achieve convergence from 1.8203080998412215e-07 to 1.8203080998512215e-07 seconds.
Warning: Simulation tolerance relaxed to achieve convergence from 1.8203081013512219e-07 to 1.8203081013612219e-07 seconds.
Warning: Simulation tolerance relaxed to achieve convergence from 1.8203081016712219e-07 to 1.8203081016812219e-07 seconds.
Warning: Simulation tolerance relaxed to achieve convergence from 1.8203081033112222e-07 to 1.8203081033212222e-07 seconds.
Warning: Simulation tolerance relaxed to achieve convergence from 1.8203081036712223e-07 to 1.8203081036812224e-07 seconds.
Warning: Simulation tolerance relaxed to achieve convergence from 1.8203081040412225e-07 to 1.8203081040512225e-07 seconds.
Warning: Simulation tolerance relaxed to achieve convergence from 1.8203081067312226e-07 to 1.8203081067412226e-07 seconds.
Warning: Simulation tolerance relaxed to achieve convergence from 1.8203081096912226e-07 to 1.8203081097012226e-07 seconds.
Warning: Simulation tolerance relaxed to achieve convergence from 1.8203081128612228e-07 to 1.8203081128712228e-07 seconds.
Warning: Simulation tolerance relaxed to achieve convergence from 1.8203081135912228e-07 to 1.8203081136012228e-07 seconds.
Warning: Simulation tolerance relaxed to achieve convergence from 1.8203081189512229e-07 to 1.8203081189612229e-07 seconds.
Warning: Simulation tolerance relaxed to achieve convergence from 1.8203081198412229e-07 to 1.8203081198512229e-07 seconds.
Warning: Simulation tolerance relaxed to achieve convergence from 1.8203081264012234e-07 to 1.8203081264112234e-07 seconds.
Warning: Simulation tolerance relaxed to achieve convergence from 1.8203081371312237e-07 to 1.8203081371412237e-07 seconds.
Warning: Simulation tolerance relaxed to achieve convergence from 1.8203081515512240e-07 to 1.8203081515612240e-07 seconds.
Warning: Simulation tolerance relaxed to achieve convergence from 1.8203081955112244e-07 to 1.8203081955212244e-07 seconds.
Warning: Simulation tolerance relaxed to achieve convergence from 1.8203260226422937e-07 to 1.8203260226522937e-07 seconds.
Warning: Simulation tolerance relaxed to achieve convergence from 1.8203260226522937e-07 to 1.8203260226622938e-07 seconds.
Warning: Simulation tolerance relaxed to achieve convergence from 1.8203260226822938e-07 to 1.8203260226922938e-07 seconds.
Warning: Simulation tolerance relaxed to achieve convergence from 1.8203286678022941e-07 to 1.8203286678122941e-07 seconds.
Warning: Simulation tolerance relaxed to achieve convergence from 1.8203286681722942e-07 to 1.8203286681822942e-07 seconds.
Warning: Simulation tolerance relaxed to achieve convergence from 1.8203286685522944e-07 to 1.8203286685622944e-07 seconds.
Warning: Simulation tolerance relaxed to achieve convergence from 1.8203286686322945e-07 to 1.8203286686422945e-07 seconds.
Warning: Simulation tolerance relaxed to achieve convergence from 1.8203286687122947e-07 to 1.8203286687222947e-07 seconds.
Warning: Simulation tolerance relaxed to achieve convergence from 1.8203286688022948e-07 to 1.8203286688122948e-07 seconds.
Warning: Simulation tolerance relaxed to achieve convergence from 1.8203286692422948e-07 to 1.8203286692522948e-07 seconds.
Warning: Simulation tolerance relaxed to achieve convergence from 1.8203286696922948e-07 to 1.8203286697022949e-07 seconds.
Warning: Simulation tolerance relaxed to achieve convergence from 1.8203286703222949e-07 to 1.8203286703322949e-07 seconds.
Warning: Simulation tolerance relaxed to achieve convergence from 1.8203286709822950e-07 to 1.8203286709922951e-07 seconds.
Warning: Simulation tolerance relaxed to achieve convergence from 1.8203286716622952e-07 to 1.8203286716722952e-07 seconds.
Warning: Simulation tolerance relaxed to achieve convergence from 1.8203286718122952e-07 to 1.8203286718222952e-07 seconds.
Warning: Simulation tolerance relaxed to achieve convergence from 1.8203286725522952e-07 to 1.8203286725622952e-07 seconds.
Warning: Simulation tolerance relaxed to achieve convergence from 1.8203286727222953e-07 to 1.8203286727322953e-07 seconds.
Warning: Simulation tolerance relaxed to achieve convergence from 1.8203286735222954e-07 to 1.8203286735322954e-07 seconds.
Warning: Simulation tolerance relaxed to achieve convergence from 1.8203286743422955e-07 to 1.8203286743522956e-07 seconds.
Warning: Simulation tolerance relaxed to achieve convergence from 1.8203286756122957e-07 to 1.8203286756222957e-07 seconds.
Warning: Simulation tolerance relaxed to achieve convergence from 1.8203286769522960e-07 to 1.8203286769622960e-07 seconds.
Warning: Simulation tolerance relaxed to achieve convergence from 1.8203286783922962e-07 to 1.8203286784022963e-07 seconds.
Warning: Simulation tolerance relaxed to achieve convergence from 1.8203286787022963e-07 to 1.8203286787122963e-07 seconds.
Warning: Simulation tolerance relaxed to achieve convergence from 1.8203286802722964e-07 to 1.8203286802822965e-07 seconds.
Warning: Simulation tolerance relaxed to achieve convergence from 1.8203286819122968e-07 to 1.8203286819222968e-07 seconds.
Warning: Simulation tolerance relaxed to achieve convergence from 1.8203286822822969e-07 to 1.8203286822922969e-07 seconds.
Warning: Simulation tolerance relaxed to achieve convergence from 1.8203286848322970e-07 to 1.8203286848422970e-07 seconds.
Warning: Simulation tolerance relaxed to achieve convergence from 1.8203286875722972e-07 to 1.8203286875822972e-07 seconds.
Warning: Simulation tolerance relaxed to achieve convergence from 1.8203286905922973e-07 to 1.8203286906022973e-07 seconds.
Warning: Simulation tolerance relaxed to achieve convergence from 1.8203286912622975e-07 to 1.8203286912722975e-07 seconds.
Warning: Simulation tolerance relaxed to achieve convergence from 1.8203286919922975e-07 to 1.8203286920022975e-07 seconds.
Warning: Simulation tolerance relaxed to achieve convergence from 1.8203286927622975e-07 to 1.8203286927722976e-07 seconds.
Warning: Simulation tolerance relaxed to achieve convergence from 1.8203286986222980e-07 to 1.8203286986322981e-07 seconds.
Warning: Simulation tolerance relaxed to achieve convergence from 1.8203287056722983e-07 to 1.8203287056822983e-07 seconds.
Warning: Simulation tolerance relaxed to achieve convergence from 1.8203287167722985e-07 to 1.8203287167822985e-07 seconds.
Warning: Simulation tolerance relaxed to achieve convergence from 1.8203287386922988e-07 to 1.8203287387022989e-07 seconds.
Warning: Simulation tolerance relaxed to achieve convergence from 1.8203477903355936e-07 to 1.8203477903455936e-07 seconds.
Warning: Simulation tolerance relaxed to achieve convergence from 1.8203499545255939e-07 to 1.8203499545355939e-07 seconds.
Warning: Simulation tolerance relaxed to achieve convergence from 1.8203499548755940e-07 to 1.8203499548855940e-07 seconds.
Warning: Simulation tolerance relaxed to achieve convergence from 1.8203499549555942e-07 to 1.8203499549655942e-07 seconds.
Warning: Simulation tolerance relaxed to achieve convergence from 1.8203499553255943e-07 to 1.8203499553355943e-07 seconds.
Warning: Simulation tolerance relaxed to achieve convergence from 1.8203499554055944e-07 to 1.8203499554155945e-07 seconds.
Warning: Simulation tolerance relaxed to achieve convergence from 1.8203499554855946e-07 to 1.8203499554955946e-07 seconds.
Warning: Simulation tolerance relaxed to achieve convergence from 1.8203499555655947e-07 to 1.8203499555755947e-07 seconds.
Warning: Simulation tolerance relaxed to achieve convergence from 1.8203499556555949e-07 to 1.8203499556655949e-07 seconds.
Warning: Simulation tolerance relaxed to achieve convergence from 1.8203499560855949e-07 to 1.8203499560955949e-07 seconds.
Warning: Simulation tolerance relaxed to achieve convergence from 1.8203499561755950e-07 to 1.8203499561855950e-07 seconds.
Warning: Simulation tolerance relaxed to achieve convergence from 1.8203499566355951e-07 to 1.8203499566455951e-07 seconds.
Warning: Simulation tolerance relaxed to achieve convergence from 1.8203499567355952e-07 to 1.8203499567455953e-07 seconds.
Warning: Simulation tolerance relaxed to achieve convergence from 1.8203499573955954e-07 to 1.8203499574055954e-07 seconds.
Warning: Simulation tolerance relaxed to achieve convergence from 1.8203499580755955e-07 to 1.8203499580855956e-07 seconds.
Warning: Simulation tolerance relaxed to achieve convergence from 1.8203499588055955e-07 to 1.8203499588155956e-07 seconds.
Warning: Simulation tolerance relaxed to achieve convergence from 1.8203499595555956e-07 to 1.8203499595655956e-07 seconds.
Warning: Simulation tolerance relaxed to achieve convergence from 1.8203499603355957e-07 to 1.8203499603455957e-07 seconds.
Warning: Simulation tolerance relaxed to achieve convergence from 1.8203499611455958e-07 to 1.8203499611555958e-07 seconds.
Warning: Simulation tolerance relaxed to achieve convergence from 1.8203499620355958e-07 to 1.8203499620455958e-07 seconds.
Warning: Simulation tolerance relaxed to achieve convergence from 1.8203499633355960e-07 to 1.8203499633455960e-07 seconds.
Warning: Simulation tolerance relaxed to achieve convergence from 1.8203499646955964e-07 to 1.8203499647055964e-07 seconds.
Warning: Simulation tolerance relaxed to achieve convergence from 1.8203499649155965e-07 to 1.8203499649255965e-07 seconds.
Warning: Simulation tolerance relaxed to achieve convergence from 1.8203499664355969e-07 to 1.8203499664455969e-07 seconds.
Warning: Simulation tolerance relaxed to achieve convergence from 1.8203499680355971e-07 to 1.8203499680455971e-07 seconds.
Warning: Simulation tolerance relaxed to achieve convergence from 1.8203499683855972e-07 to 1.8203499683955972e-07 seconds.
Warning: Simulation tolerance relaxed to achieve convergence from 1.8203499702355974e-07 to 1.8203499702455974e-07 seconds.
Warning: Simulation tolerance relaxed to achieve convergence from 1.8203499706255975e-07 to 1.8203499706355976e-07 seconds.
Warning: Simulation tolerance relaxed to achieve convergence from 1.8203499733655977e-07 to 1.8203499733755977e-07 seconds.
Warning: Simulation tolerance relaxed to achieve convergence from 1.8203499763955979e-07 to 1.8203499764055979e-07 seconds.
Warning: Simulation tolerance relaxed to achieve convergence from 1.8203499770755980e-07 to 1.8203499770855981e-07 seconds.
Warning: Simulation tolerance relaxed to achieve convergence from 1.8203499806855985e-07 to 1.8203499806955985e-07 seconds.
Warning: Simulation tolerance relaxed to achieve convergence from 1.8203499862255987e-07 to 1.8203499862355987e-07 seconds.
Warning: Simulation tolerance relaxed to achieve convergence from 1.8203499874955988e-07 to 1.8203499875055989e-07 seconds.
Warning: Simulation tolerance relaxed to achieve convergence from 1.8203499947555992e-07 to 1.8203499947655992e-07 seconds.
Warning: Simulation tolerance relaxed to achieve convergence from 1.8203499963855995e-07 to 1.8203499963955995e-07 seconds.
Warning: Simulation tolerance relaxed to achieve convergence from 1.8203500094056000e-07 to 1.8203500094156000e-07 seconds.
Warning: Simulation tolerance relaxed to achieve convergence from 1.8203500396756000e-07 to 1.8203500396856001e-07 seconds.
Warning: Simulation tolerance relaxed to achieve convergence from 1.8203688657397506e-07 to 1.8203688657497506e-07 seconds.
Warning: Simulation tolerance relaxed to achieve convergence from 1.8203688657497506e-07 to 1.8203688657597506e-07 seconds.
Warning: Simulation tolerance relaxed to achieve convergence from 1.8203688657597506e-07 to 1.8203688657697506e-07 seconds.
Warning: Simulation tolerance relaxed to achieve convergence from 1.8203707712297509e-07 to 1.8203707712397510e-07 seconds.
Warning: Simulation tolerance relaxed to achieve convergence from 1.8203707713097511e-07 to 1.8203707713197511e-07 seconds.
Warning: Simulation tolerance relaxed to achieve convergence from 1.8203707716697512e-07 to 1.8203707716797512e-07 seconds.
Warning: Simulation tolerance relaxed to achieve convergence from 1.8203707720397513e-07 to 1.8203707720497514e-07 seconds.
Warning: Simulation tolerance relaxed to achieve convergence from 1.8203707724097515e-07 to 1.8203707724197515e-07 seconds.
Warning: Simulation tolerance relaxed to achieve convergence from 1.8203707724897516e-07 to 1.8203707724997516e-07 seconds.
Warning: Simulation tolerance relaxed to achieve convergence from 1.8203707725797518e-07 to 1.8203707725897518e-07 seconds.
Warning: Simulation tolerance relaxed to achieve convergence from 1.8203707729797520e-07 to 1.8203707729897520e-07 seconds.
Warning: Simulation tolerance relaxed to achieve convergence from 1.8203707734097520e-07 to 1.8203707734197520e-07 seconds.
Warning: Simulation tolerance relaxed to achieve convergence from 1.8203707735097521e-07 to 1.8203707735197522e-07 seconds.
Warning: Simulation tolerance relaxed to achieve convergence from 1.8203707739697522e-07 to 1.8203707739797522e-07 seconds.
Warning: Simulation tolerance relaxed to achieve convergence from 1.8203707746097523e-07 to 1.8203707746197523e-07 seconds.
Warning: Simulation tolerance relaxed to achieve convergence from 1.8203707752797524e-07 to 1.8203707752897524e-07 seconds.
Warning: Simulation tolerance relaxed to achieve convergence from 1.8203707759897524e-07 to 1.8203707759997524e-07 seconds.
Warning: Simulation tolerance relaxed to achieve convergence from 1.8203707767197524e-07 to 1.8203707767297524e-07 seconds.
Warning: Simulation tolerance relaxed to achieve convergence from 1.8203707768897524e-07 to 1.8203707768997524e-07 seconds.
Warning: Simulation tolerance relaxed to achieve convergence from 1.8203707776697525e-07 to 1.8203707776797525e-07 seconds.
Warning: Simulation tolerance relaxed to achieve convergence from 1.8203707778497526e-07 to 1.8203707778597526e-07 seconds.
Warning: Simulation tolerance relaxed to achieve convergence from 1.8203707787297526e-07 to 1.8203707787397526e-07 seconds.
Warning: Simulation tolerance relaxed to achieve convergence from 1.8203707800097527e-07 to 1.8203707800197528e-07 seconds.
Warning: Simulation tolerance relaxed to achieve convergence from 1.8203707813597531e-07 to 1.8203707813697531e-07 seconds.
Warning: Simulation tolerance relaxed to achieve convergence from 1.8203707828097533e-07 to 1.8203707828197533e-07 seconds.
Warning: Simulation tolerance relaxed to achieve convergence from 1.8203707843297537e-07 to 1.8203707843397537e-07 seconds.
Warning: Simulation tolerance relaxed to achieve convergence from 1.8203707846597537e-07 to 1.8203707846697537e-07 seconds.
Warning: Simulation tolerance relaxed to achieve convergence from 1.8203707864097540e-07 to 1.8203707864197540e-07 seconds.
Warning: Simulation tolerance relaxed to achieve convergence from 1.8203707882597541e-07 to 1.8203707882697541e-07 seconds.
Warning: Simulation tolerance relaxed to achieve convergence from 1.8203707908797544e-07 to 1.8203707908897544e-07 seconds.
Warning: Simulation tolerance relaxed to achieve convergence from 1.8203707913097543e-07 to 1.8203707913197544e-07 seconds.
Warning: Simulation tolerance relaxed to achieve convergence from 1.8203707919397544e-07 to 1.8203707919497544e-07 seconds.
Warning: Simulation tolerance relaxed to achieve convergence from 1.8203707951097546e-07 to 1.8203707951197546e-07 seconds.
Warning: Simulation tolerance relaxed to achieve convergence from 1.8203707987097550e-07 to 1.8203707987197550e-07 seconds.
Warning: Simulation tolerance relaxed to achieve convergence from 1.8203708042397552e-07 to 1.8203708042497552e-07 seconds.
Warning: Simulation tolerance relaxed to achieve convergence from 1.8203708051797553e-07 to 1.8203708051897553e-07 seconds.
Warning: Simulation tolerance relaxed to achieve convergence from 1.8203708123997556e-07 to 1.8203708124097556e-07 seconds.
Warning: Simulation tolerance relaxed to achieve convergence from 1.8203708140197559e-07 to 1.8203708140297559e-07 seconds.
Warning: Simulation tolerance relaxed to achieve convergence from 1.8203708165797560e-07 to 1.8203708165897560e-07 seconds.
Warning: Simulation tolerance relaxed to achieve convergence from 1.8203708195397560e-07 to 1.8203708195497560e-07 seconds.
Warning: Simulation tolerance relaxed to achieve convergence from 1.8203708482197564e-07 to 1.8203708482297564e-07 seconds.
Warning: Simulation tolerance relaxed to achieve convergence from 1.8203912957082304e-07 to 1.8203912957182305e-07 seconds.
Warning: Simulation tolerance relaxed to achieve convergence from 1.8203912957382305e-07 to 1.8203912957482305e-07 seconds.
Warning: Simulation tolerance relaxed to achieve convergence from 1.8203930216082304e-07 to 1.8203930216182304e-07 seconds.
Warning: Simulation tolerance relaxed to achieve convergence from 1.8203930216882305e-07 to 1.8203930216982306e-07 seconds.
Warning: Simulation tolerance relaxed to achieve convergence from 1.8203930220482307e-07 to 1.8203930220582307e-07 seconds.
Warning: Simulation tolerance relaxed to achieve convergence from 1.8203930221282308e-07 to 1.8203930221382308e-07 seconds.
Warning: Simulation tolerance relaxed to achieve convergence from 1.8203930225082310e-07 to 1.8203930225182310e-07 seconds.
Warning: Simulation tolerance relaxed to achieve convergence from 1.8203930228982311e-07 to 1.8203930229082311e-07 seconds.
Warning: Simulation tolerance relaxed to achieve convergence from 1.8203930232982313e-07 to 1.8203930233082313e-07 seconds.
Warning: Simulation tolerance relaxed to achieve convergence from 1.8203930237382313e-07 to 1.8203930237482313e-07 seconds.
Warning: Simulation tolerance relaxed to achieve convergence from 1.8203930241882313e-07 to 1.8203930241982314e-07 seconds.
Warning: Simulation tolerance relaxed to achieve convergence from 1.8203930246482314e-07 to 1.8203930246582314e-07 seconds.
Warning: Simulation tolerance relaxed to achieve convergence from 1.8203930252882315e-07 to 1.8203930252982315e-07 seconds.
Warning: Simulation tolerance relaxed to achieve convergence from 1.8203930254382315e-07 to 1.8203930254482315e-07 seconds.
Warning: Simulation tolerance relaxed to achieve convergence from 1.8203930261182316e-07 to 1.8203930261282317e-07 seconds.
Warning: Simulation tolerance relaxed to achieve convergence from 1.8203930262782317e-07 to 1.8203930262882317e-07 seconds.
Warning: Simulation tolerance relaxed to achieve convergence from 1.8203930270282317e-07 to 1.8203930270382317e-07 seconds.
Warning: Simulation tolerance relaxed to achieve convergence from 1.8203930278082318e-07 to 1.8203930278182318e-07 seconds.
Warning: Simulation tolerance relaxed to achieve convergence from 1.8203930286182319e-07 to 1.8203930286282319e-07 seconds.
Warning: Simulation tolerance relaxed to achieve convergence from 1.8203930294982319e-07 to 1.8203930295082319e-07 seconds.
Warning: Simulation tolerance relaxed to achieve convergence from 1.8203930307882321e-07 to 1.8203930307982321e-07 seconds.
Warning: Simulation tolerance relaxed to achieve convergence from 1.8203930321382324e-07 to 1.8203930321482325e-07 seconds.
Warning: Simulation tolerance relaxed to achieve convergence from 1.8203930335982327e-07 to 1.8203930336082327e-07 seconds.
Warning: Simulation tolerance relaxed to achieve convergence from 1.8203930351182330e-07 to 1.8203930351282331e-07 seconds.
Warning: Simulation tolerance relaxed to achieve convergence from 1.8203930354482331e-07 to 1.8203930354582331e-07 seconds.
Warning: Simulation tolerance relaxed to achieve convergence from 1.8203930357982332e-07 to 1.8203930358082332e-07 seconds.
Warning: Simulation tolerance relaxed to achieve convergence from 1.8203930376082336e-07 to 1.8203930376182336e-07 seconds.
Warning: Simulation tolerance relaxed to achieve convergence from 1.8203930379882337e-07 to 1.8203930379982337e-07 seconds.
Warning: Simulation tolerance relaxed to achieve convergence from 1.8203930383882339e-07 to 1.8203930383982339e-07 seconds.
Warning: Simulation tolerance relaxed to achieve convergence from 1.8203930412682341e-07 to 1.8203930412782341e-07 seconds.
Warning: Simulation tolerance relaxed to achieve convergence from 1.8203930443482343e-07 to 1.8203930443582344e-07 seconds.
Warning: Simulation tolerance relaxed to achieve convergence from 1.8203930478582346e-07 to 1.8203930478682346e-07 seconds.
Warning: Simulation tolerance relaxed to achieve convergence from 1.8203930532282347e-07 to 1.8203930532382348e-07 seconds.
Warning: Simulation tolerance relaxed to achieve convergence from 1.8203930593782352e-07 to 1.8203930593882353e-07 seconds.
Warning: Simulation tolerance relaxed to achieve convergence from 1.8203930608182355e-07 to 1.8203930608282355e-07 seconds.
Warning: Simulation tolerance relaxed to achieve convergence from 1.8203930623782356e-07 to 1.8203930623882356e-07 seconds.
Warning: Simulation tolerance relaxed to achieve convergence from 1.8203930744882358e-07 to 1.8203930744982358e-07 seconds.
Warning: Simulation tolerance relaxed to achieve convergence from 1.8203930777182358e-07 to 1.8203930777282358e-07 seconds.
Warning: Simulation tolerance relaxed to achieve convergence from 1.8203930829782360e-07 to 1.8203930829882360e-07 seconds.
Warning: Simulation tolerance relaxed to achieve convergence from 1.8204127429721343e-07 to 1.8204127429821343e-07 seconds.
Warning: Simulation tolerance relaxed to achieve convergence from 1.8204127430121344e-07 to 1.8204127430221344e-07 seconds.
Warning: Simulation tolerance relaxed to achieve convergence from 1.8204127430521344e-07 to 1.8204127430621345e-07 seconds.
Warning: Simulation tolerance relaxed to achieve convergence from 1.8204127430921345e-07 to 1.8204127431021345e-07 seconds.
Warning: Simulation tolerance relaxed to achieve convergence from 1.8204127431121345e-07 to 1.8204127431221346e-07 seconds.
Warning: Simulation tolerance relaxed to achieve convergence from 1.8204150593021350e-07 to 1.8204150593121350e-07 seconds.
Warning: Simulation tolerance relaxed to achieve convergence from 1.8204150593721352e-07 to 1.8204150593821352e-07 seconds.
Warning: Simulation tolerance relaxed to achieve convergence from 1.8204150594421353e-07 to 1.8204150594521353e-07 seconds.
Warning: Simulation tolerance relaxed to achieve convergence from 1.8204150597721353e-07 to 1.8204150597821354e-07 seconds.
Warning: Simulation tolerance relaxed to achieve convergence from 1.8204150601121354e-07 to 1.8204150601221354e-07 seconds.
Warning: Simulation tolerance relaxed to achieve convergence from 1.8204150604621355e-07 to 1.8204150604721355e-07 seconds.
Warning: Simulation tolerance relaxed to achieve convergence from 1.8204150605421357e-07 to 1.8204150605521357e-07 seconds.
Warning: Simulation tolerance relaxed to achieve convergence from 1.8204150609121358e-07 to 1.8204150609221358e-07 seconds.
Warning: Simulation tolerance relaxed to achieve convergence from 1.8204150612921360e-07 to 1.8204150613021360e-07 seconds.
Warning: Simulation tolerance relaxed to achieve convergence from 1.8204150613721361e-07 to 1.8204150613821361e-07 seconds.
Warning: Simulation tolerance relaxed to achieve convergence from 1.8204150614621363e-07 to 1.8204150614721363e-07 seconds.
Warning: Simulation tolerance relaxed to achieve convergence from 1.8204150618621365e-07 to 1.8204150618721365e-07 seconds.
Warning: Simulation tolerance relaxed to achieve convergence from 1.8204150619521366e-07 to 1.8204150619621366e-07 seconds.
Warning: Simulation tolerance relaxed to achieve convergence from 1.8204150624021366e-07 to 1.8204150624121367e-07 seconds.
Warning: Simulation tolerance relaxed to achieve convergence from 1.8204150628621367e-07 to 1.8204150628721367e-07 seconds.
Warning: Simulation tolerance relaxed to achieve convergence from 1.8204150629621369e-07 to 1.8204150629721369e-07 seconds.
Warning: Simulation tolerance relaxed to achieve convergence from 1.8204150631121369e-07 to 1.8204150631221369e-07 seconds.
Warning: Simulation tolerance relaxed to achieve convergence from 1.8204150637821370e-07 to 1.8204150637921370e-07 seconds.
Warning: Simulation tolerance relaxed to achieve convergence from 1.8204150639421370e-07 to 1.8204150639521371e-07 seconds.
Warning: Simulation tolerance relaxed to achieve convergence from 1.8204150646821371e-07 to 1.8204150646921371e-07 seconds.
Warning: Simulation tolerance relaxed to achieve convergence from 1.8204150648521371e-07 to 1.8204150648621371e-07 seconds.
Warning: Simulation tolerance relaxed to achieve convergence from 1.8204150656321372e-07 to 1.8204150656421372e-07 seconds.
Warning: Simulation tolerance relaxed to achieve convergence from 1.8204150658221373e-07 to 1.8204150658321373e-07 seconds.
Warning: Simulation tolerance relaxed to achieve convergence from 1.8204150667021373e-07 to 1.8204150667121373e-07 seconds.
Warning: Simulation tolerance relaxed to achieve convergence from 1.8204150679921375e-07 to 1.8204150680021375e-07 seconds.
Warning: Simulation tolerance relaxed to achieve convergence from 1.8204150693421378e-07 to 1.8204150693521378e-07 seconds.
Warning: Simulation tolerance relaxed to achieve convergence from 1.8204150695621379e-07 to 1.8204150695721379e-07 seconds.
Warning: Simulation tolerance relaxed to achieve convergence from 1.8204150698721379e-07 to 1.8204150698821380e-07 seconds.
Warning: Simulation tolerance relaxed to achieve convergence from 1.8204150701921380e-07 to 1.8204150702021380e-07 seconds.
Warning: Simulation tolerance relaxed to achieve convergence from 1.8204150705321381e-07 to 1.8204150705421381e-07 seconds.
Warning: Simulation tolerance relaxed to achieve convergence from 1.8204150723021384e-07 to 1.8204150723121384e-07 seconds.
Warning: Simulation tolerance relaxed to achieve convergence from 1.8204150741821386e-07 to 1.8204150741921386e-07 seconds.
Warning: Simulation tolerance relaxed to achieve convergence from 1.8204150745821388e-07 to 1.8204150745921388e-07 seconds.
Warning: Simulation tolerance relaxed to achieve convergence from 1.8204150774821390e-07 to 1.8204150774921390e-07 seconds.
Warning: Simulation tolerance relaxed to achieve convergence from 1.8204150806321391e-07 to 1.8204150806421391e-07 seconds.
Warning: Simulation tolerance relaxed to achieve convergence from 1.8204150813821391e-07 to 1.8204150813921391e-07 seconds.
Warning: Simulation tolerance relaxed to achieve convergence from 1.8204150867321392e-07 to 1.8204150867421393e-07 seconds.
Warning: Simulation tolerance relaxed to achieve convergence from 1.8204150876621393e-07 to 1.8204150876721393e-07 seconds.
Warning: Simulation tolerance relaxed to achieve convergence from 1.8204150890121396e-07 to 1.8204150890221397e-07 seconds.
Warning: Simulation tolerance relaxed to achieve convergence from 1.8204150905221400e-07 to 1.8204150905321400e-07 seconds.
Warning: Simulation tolerance relaxed to achieve convergence from 1.8204151024421400e-07 to 1.8204151024521401e-07 seconds.
Warning: Simulation tolerance relaxed to achieve convergence from 1.8204151060421404e-07 to 1.8204151060521405e-07 seconds.
Warning: Simulation tolerance relaxed to achieve convergence from 1.8204395100005981e-07 to 1.8204395100105982e-07 seconds.
Warning: Simulation tolerance relaxed to achieve convergence from 1.8204395100105982e-07 to 1.8204395100205982e-07 seconds.
Warning: Simulation tolerance relaxed to achieve convergence from 1.8204404871905985e-07 to 1.8204404872005985e-07 seconds.
Warning: Simulation tolerance relaxed to achieve convergence from 1.8204404875705986e-07 to 1.8204404875805987e-07 seconds.
Warning: Simulation tolerance relaxed to achieve convergence from 1.8204404879605988e-07 to 1.8204404879705988e-07 seconds.
Warning: Simulation tolerance relaxed to achieve convergence from 1.8204404880505990e-07 to 1.8204404880605990e-07 seconds.
Warning: Simulation tolerance relaxed to achieve convergence from 1.8204404884805990e-07 to 1.8204404884905990e-07 seconds.
Warning: Simulation tolerance relaxed to achieve convergence from 1.8204404889205990e-07 to 1.8204404889305990e-07 seconds.
Warning: Simulation tolerance relaxed to achieve convergence from 1.8204404890205991e-07 to 1.8204404890305992e-07 seconds.
Warning: Simulation tolerance relaxed to achieve convergence from 1.8204404896505992e-07 to 1.8204404896605992e-07 seconds.
Warning: Simulation tolerance relaxed to achieve convergence from 1.8204404903005993e-07 to 1.8204404903105994e-07 seconds.
Warning: Simulation tolerance relaxed to achieve convergence from 1.8204404909705995e-07 to 1.8204404909805995e-07 seconds.
Warning: Simulation tolerance relaxed to achieve convergence from 1.8204404911305995e-07 to 1.8204404911405995e-07 seconds.
Warning: Simulation tolerance relaxed to achieve convergence from 1.8204404918605995e-07 to 1.8204404918705995e-07 seconds.
Warning: Simulation tolerance relaxed to achieve convergence from 1.8204404920305995e-07 to 1.8204404920405996e-07 seconds.
Warning: Simulation tolerance relaxed to achieve convergence from 1.8204404922105996e-07 to 1.8204404922205996e-07 seconds.
Warning: Simulation tolerance relaxed to achieve convergence from 1.8204404930005997e-07 to 1.8204404930105997e-07 seconds.
Warning: Simulation tolerance relaxed to achieve convergence from 1.8204404931905998e-07 to 1.8204404932005998e-07 seconds.
Warning: Simulation tolerance relaxed to achieve convergence from 1.8204404940805998e-07 to 1.8204404940905998e-07 seconds.
Warning: Simulation tolerance relaxed to achieve convergence from 1.8204404942905999e-07 to 1.8204404943005999e-07 seconds.
Warning: Simulation tolerance relaxed to achieve convergence from 1.8204404956406002e-07 to 1.8204404956506002e-07 seconds.
Warning: Simulation tolerance relaxed to achieve convergence from 1.8204404958606004e-07 to 1.8204404958706004e-07 seconds.
Warning: Simulation tolerance relaxed to achieve convergence from 1.8204404961706004e-07 to 1.8204404961806004e-07 seconds.
Warning: Simulation tolerance relaxed to achieve convergence from 1.8204404964906004e-07 to 1.8204404965006005e-07 seconds.
Warning: Simulation tolerance relaxed to achieve convergence from 1.8204404968306005e-07 to 1.8204404968406005e-07 seconds.
Warning: Simulation tolerance relaxed to achieve convergence from 1.8204404985806008e-07 to 1.8204404985906008e-07 seconds.
Warning: Simulation tolerance relaxed to achieve convergence from 1.8204405004306009e-07 to 1.8204405004406009e-07 seconds.
Warning: Simulation tolerance relaxed to achieve convergence from 1.8204405008306011e-07 to 1.8204405008406011e-07 seconds.
Warning: Simulation tolerance relaxed to achieve convergence from 1.8204405035806013e-07 to 1.8204405035906013e-07 seconds.
Warning: Simulation tolerance relaxed to achieve convergence from 1.8204405066206015e-07 to 1.8204405066306015e-07 seconds.
Warning: Simulation tolerance relaxed to achieve convergence from 1.8204405098906016e-07 to 1.8204405099006016e-07 seconds.
Warning: Simulation tolerance relaxed to achieve convergence from 1.8204405106706017e-07 to 1.8204405106806017e-07 seconds.
Warning: Simulation tolerance relaxed to achieve convergence from 1.8204405115406016e-07 to 1.8204405115506017e-07 seconds.
Warning: Simulation tolerance relaxed to achieve convergence from 1.8204405176306020e-07 to 1.8204405176406021e-07 seconds.
Warning: Simulation tolerance relaxed to achieve convergence from 1.8204405250506024e-07 to 1.8204405250606025e-07 seconds.
Warning: Simulation tolerance relaxed to achieve convergence from 1.8204405372906026e-07 to 1.8204405373006026e-07 seconds.
Warning: Simulation tolerance relaxed to achieve convergence from 1.8204405633606030e-07 to 1.8204405633706030e-07 seconds.
Warning: Simulation tolerance relaxed to achieve convergence from 1.8204405865906033e-07 to 1.8204405866006033e-07 seconds.
Warning: Simulation tolerance relaxed to achieve convergence from 1.8204592030802198e-07 to 1.8204592030902199e-07 seconds.
Warning: Simulation tolerance relaxed to achieve convergence from 1.8204592030902199e-07 to 1.8204592031002199e-07 seconds.
Warning: Simulation tolerance relaxed to achieve convergence from 1.8204592031302199e-07 to 1.8204592031402200e-07 seconds.
Warning: Simulation tolerance relaxed to achieve convergence from 1.8204608898202204e-07 to 1.8204608898302204e-07 seconds.
Warning: Simulation tolerance relaxed to achieve convergence from 1.8204608900002204e-07 to 1.8204608900102204e-07 seconds.
Warning: Simulation tolerance relaxed to achieve convergence from 1.8204608900402205e-07 to 1.8204608900502205e-07 seconds.
Warning: Simulation tolerance relaxed to achieve convergence from 1.8204608900802206e-07 to 1.8204608900902206e-07 seconds.
Warning: Simulation tolerance relaxed to achieve convergence from 1.8204608901202206e-07 to 1.8204608901302207e-07 seconds.
Warning: Simulation tolerance relaxed to achieve convergence from 1.8204608901902208e-07 to 1.8204608902002208e-07 seconds.
Warning: Simulation tolerance relaxed to achieve convergence from 1.8204608903802208e-07 to 1.8204608903902209e-07 seconds.
Warning: Simulation tolerance relaxed to achieve convergence from 1.8204608904502210e-07 to 1.8204608904602210e-07 seconds.
Warning: Simulation tolerance relaxed to achieve convergence from 1.8204608906602211e-07 to 1.8204608906702211e-07 seconds.
Warning: Simulation tolerance relaxed to achieve convergence from 1.8204608907302212e-07 to 1.8204608907402212e-07 seconds.
Warning: Simulation tolerance relaxed to achieve convergence from 1.8204608910402212e-07 to 1.8204608910502213e-07 seconds.
Warning: Simulation tolerance relaxed to achieve convergence from 1.8204608911102214e-07 to 1.8204608911202214e-07 seconds.
Warning: Simulation tolerance relaxed to achieve convergence from 1.8204608911802215e-07 to 1.8204608911902215e-07 seconds.
Warning: Simulation tolerance relaxed to achieve convergence from 1.8204608912502216e-07 to 1.8204608912602216e-07 seconds.
Warning: Simulation tolerance relaxed to achieve convergence from 1.8204608913302218e-07 to 1.8204608913402218e-07 seconds.
Warning: Simulation tolerance relaxed to achieve convergence from 1.8204608916802219e-07 to 1.8204608916902219e-07 seconds.
Warning: Simulation tolerance relaxed to achieve convergence from 1.8204608917602220e-07 to 1.8204608917702220e-07 seconds.
Warning: Simulation tolerance relaxed to achieve convergence from 1.8204608921302221e-07 to 1.8204608921402222e-07 seconds.
Warning: Simulation tolerance relaxed to achieve convergence from 1.8204608922102223e-07 to 1.8204608922202223e-07 seconds.
Warning: Simulation tolerance relaxed to achieve convergence from 1.8204608922902224e-07 to 1.8204608923002225e-07 seconds.
Warning: Simulation tolerance relaxed to achieve convergence from 1.8204608923802226e-07 to 1.8204608923902226e-07 seconds.
Warning: Simulation tolerance relaxed to achieve convergence from 1.8204608927802228e-07 to 1.8204608927902228e-07 seconds.
Warning: Simulation tolerance relaxed to achieve convergence from 1.8204608932102228e-07 to 1.8204608932202228e-07 seconds.
Warning: Simulation tolerance relaxed to achieve convergence from 1.8204608933102230e-07 to 1.8204608933202230e-07 seconds.
Warning: Simulation tolerance relaxed to achieve convergence from 1.8204608937702230e-07 to 1.8204608937802230e-07 seconds.
Warning: Simulation tolerance relaxed to achieve convergence from 1.8204608944002231e-07 to 1.8204608944102231e-07 seconds.
Warning: Simulation tolerance relaxed to achieve convergence from 1.8204608945502231e-07 to 1.8204608945602231e-07 seconds.
Warning: Simulation tolerance relaxed to achieve convergence from 1.8204608952202232e-07 to 1.8204608952302232e-07 seconds.
Warning: Simulation tolerance relaxed to achieve convergence from 1.8204608953802232e-07 to 1.8204608953902233e-07 seconds.
Warning: Simulation tolerance relaxed to achieve convergence from 1.8204608955402233e-07 to 1.8204608955502233e-07 seconds.
Warning: Simulation tolerance relaxed to achieve convergence from 1.8204608957102233e-07 to 1.8204608957202233e-07 seconds.
Warning: Simulation tolerance relaxed to achieve convergence from 1.8204608964802234e-07 to 1.8204608964902234e-07 seconds.
Warning: Simulation tolerance relaxed to achieve convergence from 1.8204608966602234e-07 to 1.8204608966702235e-07 seconds.
Warning: Simulation tolerance relaxed to achieve convergence from 1.8204608968502235e-07 to 1.8204608968602235e-07 seconds.
Warning: Simulation tolerance relaxed to achieve convergence from 1.8204608977402235e-07 to 1.8204608977502235e-07 seconds.
Warning: Simulation tolerance relaxed to achieve convergence from 1.8204608979502236e-07 to 1.8204608979602237e-07 seconds.
Warning: Simulation tolerance relaxed to achieve convergence from 1.8204608993002240e-07 to 1.8204608993102240e-07 seconds.
Warning: Simulation tolerance relaxed to achieve convergence from 1.8204608995202241e-07 to 1.8204608995302241e-07 seconds.
Warning: Simulation tolerance relaxed to achieve convergence from 1.8204608998402241e-07 to 1.8204608998502242e-07 seconds.
Warning: Simulation tolerance relaxed to achieve convergence from 1.8204609014002243e-07 to 1.8204609014102243e-07 seconds.
Warning: Simulation tolerance relaxed to achieve convergence from 1.8204609017602244e-07 to 1.8204609017702244e-07 seconds.
Warning: Simulation tolerance relaxed to achieve convergence from 1.8204609035602248e-07 to 1.8204609035702248e-07 seconds.
Warning: Simulation tolerance relaxed to achieve convergence from 1.8204609039502249e-07 to 1.8204609039602250e-07 seconds.
Warning: Simulation tolerance relaxed to achieve convergence from 1.8204609043802249e-07 to 1.8204609043902249e-07 seconds.
Warning: Simulation tolerance relaxed to achieve convergence from 1.8204609072802251e-07 to 1.8204609072902251e-07 seconds.
Warning: Simulation tolerance relaxed to achieve convergence from 1.8204609104502253e-07 to 1.8204609104602253e-07 seconds.
Warning: Simulation tolerance relaxed to achieve convergence from 1.8204609112202253e-07 to 1.8204609112302254e-07 seconds.
Warning: Simulation tolerance relaxed to achieve convergence from 1.8204609166702256e-07 to 1.8204609166802257e-07 seconds.
Warning: Simulation tolerance relaxed to achieve convergence from 1.8204609232102261e-07 to 1.8204609232202261e-07 seconds.
Warning: Simulation tolerance relaxed to achieve convergence from 1.8204609248402263e-07 to 1.8204609248502264e-07 seconds.
Warning: Simulation tolerance relaxed to achieve convergence from 1.8204609379602267e-07 to 1.8204609379702267e-07 seconds.
Warning: Simulation tolerance relaxed to achieve convergence from 1.8204846149160137e-07 to 1.8204846149260138e-07 seconds.
Warning: Simulation tolerance relaxed to achieve convergence from 1.8204846149460138e-07 to 1.8204846149560138e-07 seconds.
Warning: Simulation tolerance relaxed to achieve convergence from 1.8204846149760138e-07 to 1.8204846149860139e-07 seconds.
Warning: Simulation tolerance relaxed to achieve convergence from 1.8204846149860139e-07 to 1.8204846149960139e-07 seconds.
Warning: Simulation tolerance relaxed to achieve convergence from 1.8204846150160139e-07 to 1.8204846150260139e-07 seconds.
Warning: Simulation tolerance relaxed to achieve convergence from 1.8204855275860142e-07 to 1.8204855275960142e-07 seconds.
Warning: Simulation tolerance relaxed to achieve convergence from 1.8204855280160142e-07 to 1.8204855280260142e-07 seconds.
Warning: Simulation tolerance relaxed to achieve convergence from 1.8204855284460141e-07 to 1.8204855284560142e-07 seconds.
Warning: Simulation tolerance relaxed to achieve convergence from 1.8204855285460143e-07 to 1.8204855285560143e-07 seconds.
Warning: Simulation tolerance relaxed to achieve convergence from 1.8204855286460145e-07 to 1.8204855286560145e-07 seconds.
Warning: Simulation tolerance relaxed to achieve convergence from 1.8204855292760146e-07 to 1.8204855292860146e-07 seconds.
Warning: Simulation tolerance relaxed to achieve convergence from 1.8204855299360147e-07 to 1.8204855299460147e-07 seconds.
Warning: Simulation tolerance relaxed to achieve convergence from 1.8204855306060149e-07 to 1.8204855306160149e-07 seconds.
Warning: Simulation tolerance relaxed to achieve convergence from 1.8204855307660149e-07 to 1.8204855307760149e-07 seconds.
Warning: Simulation tolerance relaxed to achieve convergence from 1.8204855309260149e-07 to 1.8204855309360149e-07 seconds.
Warning: Simulation tolerance relaxed to achieve convergence from 1.8204855310960149e-07 to 1.8204855311060150e-07 seconds.
Warning: Simulation tolerance relaxed to achieve convergence from 1.8204855318660150e-07 to 1.8204855318760150e-07 seconds.
Warning: Simulation tolerance relaxed to achieve convergence from 1.8204855320460151e-07 to 1.8204855320560151e-07 seconds.
Warning: Simulation tolerance relaxed to achieve convergence from 1.8204855322260151e-07 to 1.8204855322360152e-07 seconds.
Warning: Simulation tolerance relaxed to achieve convergence from 1.8204855324160152e-07 to 1.8204855324260152e-07 seconds.
Warning: Simulation tolerance relaxed to achieve convergence from 1.8204855326060153e-07 to 1.8204855326160153e-07 seconds.
Warning: Simulation tolerance relaxed to achieve convergence from 1.8204855328160154e-07 to 1.8204855328260154e-07 seconds.
Warning: Simulation tolerance relaxed to achieve convergence from 1.8204855330260155e-07 to 1.8204855330360155e-07 seconds.
Warning: Simulation tolerance relaxed to achieve convergence from 1.8204855332460157e-07 to 1.8204855332560157e-07 seconds.
Warning: Simulation tolerance relaxed to achieve convergence from 1.8204855335560157e-07 to 1.8204855335660157e-07 seconds.
Warning: Simulation tolerance relaxed to achieve convergence from 1.8204855338760157e-07 to 1.8204855338860157e-07 seconds.
Warning: Simulation tolerance relaxed to achieve convergence from 1.8204855342060158e-07 to 1.8204855342160158e-07 seconds.
Warning: Simulation tolerance relaxed to achieve convergence from 1.8204855345560159e-07 to 1.8204855345660159e-07 seconds.
Warning: Simulation tolerance relaxed to achieve convergence from 1.8204855349160160e-07 to 1.8204855349260160e-07 seconds.
Warning: Simulation tolerance relaxed to achieve convergence from 1.8204855352960162e-07 to 1.8204855353060162e-07 seconds.
Warning: Simulation tolerance relaxed to achieve convergence from 1.8204855378660163e-07 to 1.8204855378760163e-07 seconds.
Warning: Simulation tolerance relaxed to achieve convergence from 1.8204855406360165e-07 to 1.8204855406460166e-07 seconds.
Warning: Simulation tolerance relaxed to achieve convergence from 1.8204855437160168e-07 to 1.8204855437260168e-07 seconds.
Warning: Simulation tolerance relaxed to achieve convergence from 1.8204855444560168e-07 to 1.8204855444660168e-07 seconds.
Warning: Simulation tolerance relaxed to achieve convergence from 1.8204855452460169e-07 to 1.8204855452560169e-07 seconds.
Warning: Simulation tolerance relaxed to achieve convergence from 1.8204855507860171e-07 to 1.8204855507960171e-07 seconds.
Warning: Simulation tolerance relaxed to achieve convergence from 1.8204855521260174e-07 to 1.8204855521360174e-07 seconds.
Warning: Simulation tolerance relaxed to achieve convergence from 1.8204855536160177e-07 to 1.8204855536260177e-07 seconds.
Warning: Simulation tolerance relaxed to achieve convergence from 1.8204855647360179e-07 to 1.8204855647460179e-07 seconds.
Warning: Simulation tolerance relaxed to achieve convergence from 1.8204855679960180e-07 to 1.8204855680060180e-07 seconds.
Warning: Simulation tolerance relaxed to achieve convergence from 1.8204855734860181e-07 to 1.8204855734960181e-07 seconds.
Warning: Simulation tolerance relaxed to achieve convergence from 1.8204855845860182e-07 to 1.8204855845960183e-07 seconds.
Warning: Simulation tolerance relaxed to achieve convergence from 1.8205097320636158e-07 to 1.8205097320736158e-07 seconds.
Warning: Simulation tolerance relaxed to achieve convergence from 1.8205097320736158e-07 to 1.8205097320836158e-07 seconds.
Warning: Simulation tolerance relaxed to achieve convergence from 1.8205097320836158e-07 to 1.8205097320936158e-07 seconds.
Warning: Simulation tolerance relaxed to achieve convergence from 1.8205097320936158e-07 to 1.8205097321036159e-07 seconds.
Warning: Simulation tolerance relaxed to achieve convergence from 1.8205097955636160e-07 to 1.8205097955636160e-07 seconds.
Total elapsed time: 14.531 seconds.

Simulation Failed: 

Total elapsed time: 14.531 seconds.

Files loaded:
C:\Users\Usuario\Documents\LTspice\1_LTC4370_Simulations\2_LTC4370_CurrentBalancingController_Si2342DS_nmos\LTC4370.net
C:\Users\Usuario\Documents\LTspice\1_LTC4370_Simulations\2_LTC4370_CurrentBalancingController_Si2342DS_nmos\si2342ds_ps_revb\Si2342DS_PS_RC_Rev_B.lib
C:\Users\Usuario\AppData\Local\LTspice\lib\sub\LTC4370.sub

