LTspice 24.1.1 for Windows
Circuit: C:\Users\Usuario\Documents\LTspice\2_LTC4370_CurrentBalancingController_Si2342DS_nmos\LTC4370.net
Start Time: Thu Oct 16 12:45:36 2025
solver = Normal
Maximum thread count: 8
tnom = 27
temp = 27
method = trap
Model "nmos": Oxide thickness thinner than recommended for a level 3 MOSFET.
Model "pmos": Oxide thickness thinner than recommended for a level 3 MOSFET.
Model "nmos": Oxide thickness thinner than recommended for a level 3 MOSFET.
Model "pmos": Oxide thickness thinner than recommended for a level 3 MOSFET.
Instance "m1:M1": Length shorter than recommended for a level 3 MOSFET.
Instance "m1:M2": Length shorter than recommended for a level 3 MOSFET.
Instance "m2:M1": Length shorter than recommended for a level 3 MOSFET.
Instance "m2:M2": Length shorter than recommended for a level 3 MOSFET.
Direct Newton iteration failed to find .op point.  (Use ".option noopiter" to skip.)
Starting Gmin stepping
Gmin = 10
Gmin = 1.07374
vernier = 0.5
Gmin = 0.180144
vernier = 0.666667
Gmin = 0.0462512
vernier = 0.888888
vernier = 1
Gmin = 0.006089
Gmin = 0.000653801
Gmin = 7.02013e-05
Gmin = 7.53781e-06
Gmin = 8.09366e-07
Gmin = 8.6905e-08
Gmin = 9.33136e-09
Gmin = 1.00195e-09
Gmin = 1.07583e-10
Gmin = 1.15517e-11
Gmin = 1.24035e-12
Gmin = 1.33182e-13
Gmin = 0
Gmin stepping succeeded in finding the operating point.

Changing Tseed to 1e-08
Changing Tseed to 1e-10
Warning: Simulation tolerance relaxed to achieve convergence from 1.3695223803890974e-07 to 1.3695223803990974e-07 seconds.
Warning: Simulation tolerance relaxed to achieve convergence from 1.3695223848090977e-07 to 1.3695223848190977e-07 seconds.
Warning: Simulation tolerance relaxed to achieve convergence from 1.3695223848390977e-07 to 1.3695223848490978e-07 seconds.
Warning: Simulation tolerance relaxed to achieve convergence from 1.3695223848490978e-07 to 1.3695223848590978e-07 seconds.
Warning: Simulation tolerance relaxed to achieve convergence from 1.3695223848590978e-07 to 1.3695223848690978e-07 seconds.
Warning: Simulation tolerance relaxed to achieve convergence from 1.3695223848790978e-07 to 1.3695223848890978e-07 seconds.
Warning: Simulation tolerance relaxed to achieve convergence from 1.3695223848990979e-07 to 1.3695223849090979e-07 seconds.
Warning: Simulation tolerance relaxed to achieve convergence from 1.3695223849090979e-07 to 1.3695223849190979e-07 seconds.
Warning: Simulation tolerance relaxed to achieve convergence from 1.3695223849190979e-07 to 1.3695223849290979e-07 seconds.
Warning: Simulation tolerance relaxed to achieve convergence from 1.3695223849290979e-07 to 1.3695223849390979e-07 seconds.
Warning: Simulation tolerance relaxed to achieve convergence from 1.3695223849390979e-07 to 1.3695223849490979e-07 seconds.
Warning: Simulation tolerance relaxed to achieve convergence from 1.3695223849490979e-07 to 1.3695223849590980e-07 seconds.
Warning: Simulation tolerance relaxed to achieve convergence from 1.3695223849590980e-07 to 1.3695223849690980e-07 seconds.
Warning: Simulation tolerance relaxed to achieve convergence from 1.3695223849790980e-07 to 1.3695223849890980e-07 seconds.
Warning: Simulation tolerance relaxed to achieve convergence from 1.3695223849890980e-07 to 1.3695223849990980e-07 seconds.
Warning: Simulation tolerance relaxed to achieve convergence from 1.3695223850090981e-07 to 1.3695223850190981e-07 seconds.
Warning: Simulation tolerance relaxed to achieve convergence from 1.3695223850190981e-07 to 1.3695223850290981e-07 seconds.
Warning: Simulation tolerance relaxed to achieve convergence from 1.3695223850390981e-07 to 1.3695223850490981e-07 seconds.
Warning: Simulation tolerance relaxed to achieve convergence from 1.3695223850490981e-07 to 1.3695223850590981e-07 seconds.
Warning: Simulation tolerance relaxed to achieve convergence from 1.3695223850690982e-07 to 1.3695223850790982e-07 seconds.
Warning: Simulation tolerance relaxed to achieve convergence from 1.3695223850790982e-07 to 1.3695223850890982e-07 seconds.
Warning: Simulation tolerance relaxed to achieve convergence from 1.3695223851090982e-07 to 1.3695223851190983e-07 seconds.
Warning: Simulation tolerance relaxed to achieve convergence from 1.3695223851290983e-07 to 1.3695223851390983e-07 seconds.
Warning: Simulation tolerance relaxed to achieve convergence from 1.3695223851390983e-07 to 1.3695223851490983e-07 seconds.
Warning: Simulation tolerance relaxed to achieve convergence from 1.3695223851590983e-07 to 1.3695223851690983e-07 seconds.
Warning: Simulation tolerance relaxed to achieve convergence from 1.3695223851690983e-07 to 1.3695223851790984e-07 seconds.
Warning: Simulation tolerance relaxed to achieve convergence from 1.3695223851890984e-07 to 1.3695223851990984e-07 seconds.
Warning: Simulation tolerance relaxed to achieve convergence from 1.3695223851990984e-07 to 1.3695223852090984e-07 seconds.
Warning: Simulation tolerance relaxed to achieve convergence from 1.3695223852090984e-07 to 1.3695223852190984e-07 seconds.
Warning: Simulation tolerance relaxed to achieve convergence from 1.3695223852390985e-07 to 1.3695223852490985e-07 seconds.
Warning: Simulation tolerance relaxed to achieve convergence from 1.3695223852590985e-07 to 1.3695223852690985e-07 seconds.
Warning: Simulation tolerance relaxed to achieve convergence from 1.3695223852690985e-07 to 1.3695223852790985e-07 seconds.
Warning: Simulation tolerance relaxed to achieve convergence from 1.3695223852890986e-07 to 1.3695223852990986e-07 seconds.
Warning: Simulation tolerance relaxed to achieve convergence from 1.3695223852990986e-07 to 1.3695223853090986e-07 seconds.
Warning: Simulation tolerance relaxed to achieve convergence from 1.3695223853290986e-07 to 1.3695223853390986e-07 seconds.
Warning: Simulation tolerance relaxed to achieve convergence from 1.3695223853490987e-07 to 1.3695223853590987e-07 seconds.
Warning: Simulation tolerance relaxed to achieve convergence from 1.3695223853590987e-07 to 1.3695223853690987e-07 seconds.
Warning: Simulation tolerance relaxed to achieve convergence from 1.3695223853790987e-07 to 1.3695223853890987e-07 seconds.
Warning: Simulation tolerance relaxed to achieve convergence from 1.3695223853890987e-07 to 1.3695223853990988e-07 seconds.
Warning: Simulation tolerance relaxed to achieve convergence from 1.3695223854090988e-07 to 1.3695223854190988e-07 seconds.
Warning: Simulation tolerance relaxed to achieve convergence from 1.3695223854190988e-07 to 1.3695223854290988e-07 seconds.
Warning: Simulation tolerance relaxed to achieve convergence from 1.3695223854290988e-07 to 1.3695223854390988e-07 seconds.
Warning: Simulation tolerance relaxed to achieve convergence from 1.3695223854390988e-07 to 1.3695223854490988e-07 seconds.
Warning: Simulation tolerance relaxed to achieve convergence from 1.3695223854490988e-07 to 1.3695223854590989e-07 seconds.
Warning: Simulation tolerance relaxed to achieve convergence from 1.3695223854790989e-07 to 1.3695223854890989e-07 seconds.
Warning: Simulation tolerance relaxed to achieve convergence from 1.3695223854990989e-07 to 1.3695223855090990e-07 seconds.
Warning: Simulation tolerance relaxed to achieve convergence from 1.3695223855090990e-07 to 1.3695223855190990e-07 seconds.
Warning: Simulation tolerance relaxed to achieve convergence from 1.3695223855190990e-07 to 1.3695223855290990e-07 seconds.
Warning: Simulation tolerance relaxed to achieve convergence from 1.3695223855290990e-07 to 1.3695223855390990e-07 seconds.
Warning: Simulation tolerance relaxed to achieve convergence from 1.3695223855390990e-07 to 1.3695223855490990e-07 seconds.
Warning: Simulation tolerance relaxed to achieve convergence from 1.3695223855490990e-07 to 1.3695223855590990e-07 seconds.
Warning: Simulation tolerance relaxed to achieve convergence from 1.3695223855690991e-07 to 1.3695223855790991e-07 seconds.
Warning: Simulation tolerance relaxed to achieve convergence from 1.3695223855790991e-07 to 1.3695223855890991e-07 seconds.
Warning: Simulation tolerance relaxed to achieve convergence from 1.3695223855990991e-07 to 1.3695223856090991e-07 seconds.
Warning: Simulation tolerance relaxed to achieve convergence from 1.3695223856090991e-07 to 1.3695223856190992e-07 seconds.
Warning: Simulation tolerance relaxed to achieve convergence from 1.3695223856290992e-07 to 1.3695223856390992e-07 seconds.
Warning: Simulation tolerance relaxed to achieve convergence from 1.3695223856390992e-07 to 1.3695223856490992e-07 seconds.
Warning: Simulation tolerance relaxed to achieve convergence from 1.3695223856590992e-07 to 1.3695223856690992e-07 seconds.
Warning: Simulation tolerance relaxed to achieve convergence from 1.3695223856690992e-07 to 1.3695223856790993e-07 seconds.
Warning: Simulation tolerance relaxed to achieve convergence from 1.3695223856990993e-07 to 1.3695223857090993e-07 seconds.
Warning: Simulation tolerance relaxed to achieve convergence from 1.3695223857190993e-07 to 1.3695223857290994e-07 seconds.
Warning: Simulation tolerance relaxed to achieve convergence from 1.3695223857290994e-07 to 1.3695223857390994e-07 seconds.
Warning: Simulation tolerance relaxed to achieve convergence from 1.3695223857490994e-07 to 1.3695223857590994e-07 seconds.
Warning: Simulation tolerance relaxed to achieve convergence from 1.3695223857590994e-07 to 1.3695223857690994e-07 seconds.
Warning: Simulation tolerance relaxed to achieve convergence from 1.3695223857890995e-07 to 1.3695223857990995e-07 seconds.
Warning: Simulation tolerance relaxed to achieve convergence from 1.3695223858090995e-07 to 1.3695223858190995e-07 seconds.
Warning: Simulation tolerance relaxed to achieve convergence from 1.3695223858190995e-07 to 1.3695223858290995e-07 seconds.
Warning: Simulation tolerance relaxed to achieve convergence from 1.3695223858390996e-07 to 1.3695223858490996e-07 seconds.
Warning: Simulation tolerance relaxed to achieve convergence from 1.3695223858490996e-07 to 1.3695223858590996e-07 seconds.
Warning: Simulation tolerance relaxed to achieve convergence from 1.3695223858690996e-07 to 1.3695223858790996e-07 seconds.
Warning: Simulation tolerance relaxed to achieve convergence from 1.3695223858790996e-07 to 1.3695223858890996e-07 seconds.
Warning: Simulation tolerance relaxed to achieve convergence from 1.3695223859090997e-07 to 1.3695223859190997e-07 seconds.
Warning: Simulation tolerance relaxed to achieve convergence from 1.3695223859290997e-07 to 1.3695223859390997e-07 seconds.
Warning: Simulation tolerance relaxed to achieve convergence from 1.3695223859390997e-07 to 1.3695223859490997e-07 seconds.
Warning: Simulation tolerance relaxed to achieve convergence from 1.3695223859590998e-07 to 1.3695223859690998e-07 seconds.
Warning: Simulation tolerance relaxed to achieve convergence from 1.3695223859690998e-07 to 1.3695223859790998e-07 seconds.
Warning: Simulation tolerance relaxed to achieve convergence from 1.3695223859890998e-07 to 1.3695223859990998e-07 seconds.
Warning: Simulation tolerance relaxed to achieve convergence from 1.3695223859990998e-07 to 1.3695223860090999e-07 seconds.
Warning: Simulation tolerance relaxed to achieve convergence from 1.3695223860090999e-07 to 1.3695223860190999e-07 seconds.
Warning: Simulation tolerance relaxed to achieve convergence from 1.3695223860290999e-07 to 1.3695223860390999e-07 seconds.
Warning: Simulation tolerance relaxed to achieve convergence from 1.3695223860490999e-07 to 1.3695223860590999e-07 seconds.
Warning: Simulation tolerance relaxed to achieve convergence from 1.3695223860590999e-07 to 1.3695223860691000e-07 seconds.
Warning: Simulation tolerance relaxed to achieve convergence from 1.3695223860891000e-07 to 1.3695223860991000e-07 seconds.
Warning: Simulation tolerance relaxed to achieve convergence from 1.3695223861091000e-07 to 1.3695223861191001e-07 seconds.
Warning: Simulation tolerance relaxed to achieve convergence from 1.3695223861191001e-07 to 1.3695223861291001e-07 seconds.
Warning: Simulation tolerance relaxed to achieve convergence from 1.3695223861391001e-07 to 1.3695223861491001e-07 seconds.
Warning: Simulation tolerance relaxed to achieve convergence from 1.3695223861491001e-07 to 1.3695223861591001e-07 seconds.
Warning: Simulation tolerance relaxed to achieve convergence from 1.3695223861691001e-07 to 1.3695223861791002e-07 seconds.
Warning: Simulation tolerance relaxed to achieve convergence from 1.3695223861791002e-07 to 1.3695223861891002e-07 seconds.
Warning: Simulation tolerance relaxed to achieve convergence from 1.3695223862091002e-07 to 1.3695223862191002e-07 seconds.
Warning: Simulation tolerance relaxed to achieve convergence from 1.3695223862291003e-07 to 1.3695223862391003e-07 seconds.
Warning: Simulation tolerance relaxed to achieve convergence from 1.3695223862391003e-07 to 1.3695223862491003e-07 seconds.
Warning: Simulation tolerance relaxed to achieve convergence from 1.3695223862591003e-07 to 1.3695223862691003e-07 seconds.
Warning: Simulation tolerance relaxed to achieve convergence from 1.3695223862691003e-07 to 1.3695223862791003e-07 seconds.
Warning: Simulation tolerance relaxed to achieve convergence from 1.3695223862891004e-07 to 1.3695223862991004e-07 seconds.
Warning: Simulation tolerance relaxed to achieve convergence from 1.3695223862991004e-07 to 1.3695223863091004e-07 seconds.
Warning: Simulation tolerance relaxed to achieve convergence from 1.3695223863291004e-07 to 1.3695223863391005e-07 seconds.
Warning: Simulation tolerance relaxed to achieve convergence from 1.3695223863491005e-07 to 1.3695223863591005e-07 seconds.
Warning: Simulation tolerance relaxed to achieve convergence from 1.3695223863591005e-07 to 1.3695223863691005e-07 seconds.
Warning: Simulation tolerance relaxed to achieve convergence from 1.3695223863791005e-07 to 1.3695223863891005e-07 seconds.
Warning: Simulation tolerance relaxed to achieve convergence from 1.3695223863891005e-07 to 1.3695223863991006e-07 seconds.
Warning: Simulation tolerance relaxed to achieve convergence from 1.3695223863991006e-07 to 1.3695223864091006e-07 seconds.
Warning: Simulation tolerance relaxed to achieve convergence from 1.3695223864091006e-07 to 1.3695223864191006e-07 seconds.
Warning: Simulation tolerance relaxed to achieve convergence from 1.3695223864191006e-07 to 1.3695223864291006e-07 seconds.
Warning: Simulation tolerance relaxed to achieve convergence from 1.3695223864291006e-07 to 1.3695223864391006e-07 seconds.
Warning: Simulation tolerance relaxed to achieve convergence from 1.3695223864391006e-07 to 1.3695223864491007e-07 seconds.
Warning: Simulation tolerance relaxed to achieve convergence from 1.3695223864491007e-07 to 1.3695223864591007e-07 seconds.
Warning: Simulation tolerance relaxed to achieve convergence from 1.3695223864591007e-07 to 1.3695223864691007e-07 seconds.
Warning: Simulation tolerance relaxed to achieve convergence from 1.3695223864691007e-07 to 1.3695223864791007e-07 seconds.
Warning: Simulation tolerance relaxed to achieve convergence from 1.3695223864791007e-07 to 1.3695223864891007e-07 seconds.
Warning: Simulation tolerance relaxed to achieve convergence from 1.3695223864991007e-07 to 1.3695223865091008e-07 seconds.
Warning: Simulation tolerance relaxed to achieve convergence from 1.3695223865091008e-07 to 1.3695223865191008e-07 seconds.
Warning: Simulation tolerance relaxed to achieve convergence from 1.3695223865291008e-07 to 1.3695223865391008e-07 seconds.
Warning: Simulation tolerance relaxed to achieve convergence from 1.3695223865391008e-07 to 1.3695223865491008e-07 seconds.
Warning: Simulation tolerance relaxed to achieve convergence from 1.3695223865591008e-07 to 1.3695223865691009e-07 seconds.
Warning: Simulation tolerance relaxed to achieve convergence from 1.3695223865691009e-07 to 1.3695223865791009e-07 seconds.
Warning: Simulation tolerance relaxed to achieve convergence from 1.3695223865891009e-07 to 1.3695223865991009e-07 seconds.
Warning: Simulation tolerance relaxed to achieve convergence from 1.3695223865991009e-07 to 1.3695223866091009e-07 seconds.
Warning: Simulation tolerance relaxed to achieve convergence from 1.3695223866091009e-07 to 1.3695223866191010e-07 seconds.
Warning: Simulation tolerance relaxed to achieve convergence from 1.3695223866191010e-07 to 1.3695223866291010e-07 seconds.
Warning: Simulation tolerance relaxed to achieve convergence from 1.3695223866291010e-07 to 1.3695223866391010e-07 seconds.
Warning: Simulation tolerance relaxed to achieve convergence from 1.3695223866391010e-07 to 1.3695223866491010e-07 seconds.
Warning: Simulation tolerance relaxed to achieve convergence from 1.3695223866491010e-07 to 1.3695223866591010e-07 seconds.
Warning: Simulation tolerance relaxed to achieve convergence from 1.3695223866591010e-07 to 1.3695223866691010e-07 seconds.
Warning: Simulation tolerance relaxed to achieve convergence from 1.3695223866891011e-07 to 1.3695223866991011e-07 seconds.
Warning: Simulation tolerance relaxed to achieve convergence from 1.3695223867091011e-07 to 1.3695223867191011e-07 seconds.
Warning: Simulation tolerance relaxed to achieve convergence from 1.3695223867191011e-07 to 1.3695223867291012e-07 seconds.
Warning: Simulation tolerance relaxed to achieve convergence from 1.3695223867391012e-07 to 1.3695223867491012e-07 seconds.
Warning: Simulation tolerance relaxed to achieve convergence from 1.3695223867491012e-07 to 1.3695223867591012e-07 seconds.
Warning: Simulation tolerance relaxed to achieve convergence from 1.3695223867691012e-07 to 1.3695223867791012e-07 seconds.
Warning: Simulation tolerance relaxed to achieve convergence from 1.3695223867791012e-07 to 1.3695223867891013e-07 seconds.
Warning: Simulation tolerance relaxed to achieve convergence from 1.3695223867891013e-07 to 1.3695223867991013e-07 seconds.
Warning: Simulation tolerance relaxed to achieve convergence from 1.3695223868091013e-07 to 1.3695223868191013e-07 seconds.
Warning: Simulation tolerance relaxed to achieve convergence from 1.3695223868291013e-07 to 1.3695223868391014e-07 seconds.
Warning: Simulation tolerance relaxed to achieve convergence from 1.3695223868391014e-07 to 1.3695223868491014e-07 seconds.
Warning: Simulation tolerance relaxed to achieve convergence from 1.3695223868591014e-07 to 1.3695223868691014e-07 seconds.
Warning: Simulation tolerance relaxed to achieve convergence from 1.3695223868691014e-07 to 1.3695223868791014e-07 seconds.
Warning: Simulation tolerance relaxed to achieve convergence from 1.3695223868991015e-07 to 1.3695223869091015e-07 seconds.
Warning: Simulation tolerance relaxed to achieve convergence from 1.3695223869191015e-07 to 1.3695223869291015e-07 seconds.
Warning: Simulation tolerance relaxed to achieve convergence from 1.3695223869291015e-07 to 1.3695223869391015e-07 seconds.
Warning: Simulation tolerance relaxed to achieve convergence from 1.3695223869491016e-07 to 1.3695223869591016e-07 seconds.
Warning: Simulation tolerance relaxed to achieve convergence from 1.3695223869591016e-07 to 1.3695223869691016e-07 seconds.
Warning: Simulation tolerance relaxed to achieve convergence from 1.3695223869791016e-07 to 1.3695223869891016e-07 seconds.
Warning: Simulation tolerance relaxed to achieve convergence from 1.3695223869891016e-07 to 1.3695223869991016e-07 seconds.
Warning: Simulation tolerance relaxed to achieve convergence from 1.3695223870191017e-07 to 1.3695223870291017e-07 seconds.
Warning: Simulation tolerance relaxed to achieve convergence from 1.3695223870391017e-07 to 1.3695223870491017e-07 seconds.
Warning: Simulation tolerance relaxed to achieve convergence from 1.3695223870491017e-07 to 1.3695223870591018e-07 seconds.
Warning: Simulation tolerance relaxed to achieve convergence from 1.3695223870791018e-07 to 1.3695223870891018e-07 seconds.
Warning: Simulation tolerance relaxed to achieve convergence from 1.3695223870891018e-07 to 1.3695223870991018e-07 seconds.
Warning: Simulation tolerance relaxed to achieve convergence from 1.3695223870991018e-07 to 1.3695223871091018e-07 seconds.
Warning: Simulation tolerance relaxed to achieve convergence from 1.3695223871091018e-07 to 1.3695223871191019e-07 seconds.
Warning: Simulation tolerance relaxed to achieve convergence from 1.3695223871291019e-07 to 1.3695223871391019e-07 seconds.
Warning: Simulation tolerance relaxed to achieve convergence from 1.3695223871391019e-07 to 1.3695223871491019e-07 seconds.
Warning: Simulation tolerance relaxed to achieve convergence from 1.3695223871591019e-07 to 1.3695223871691019e-07 seconds.
Warning: Simulation tolerance relaxed to achieve convergence from 1.3695223871691019e-07 to 1.3695223871791020e-07 seconds.
Warning: Simulation tolerance relaxed to achieve convergence from 1.3695223871891020e-07 to 1.3695223871991020e-07 seconds.
Warning: Simulation tolerance relaxed to achieve convergence from 1.3695223871991020e-07 to 1.3695223872091020e-07 seconds.
Warning: Simulation tolerance relaxed to achieve convergence from 1.3695223872191020e-07 to 1.3695223872291021e-07 seconds.
Warning: Simulation tolerance relaxed to achieve convergence from 1.3695223872491021e-07 to 1.3695223872591021e-07 seconds.
Warning: Simulation tolerance relaxed to achieve convergence from 1.3695223872691021e-07 to 1.3695223872791021e-07 seconds.
Warning: Simulation tolerance relaxed to achieve convergence from 1.3695223872791021e-07 to 1.3695223872891022e-07 seconds.
Warning: Simulation tolerance relaxed to achieve convergence from 1.3695223872891022e-07 to 1.3695223872991022e-07 seconds.
Warning: Simulation tolerance relaxed to achieve convergence from 1.3695223872991022e-07 to 1.3695223873091022e-07 seconds.
Warning: Simulation tolerance relaxed to achieve convergence from 1.3695223873091022e-07 to 1.3695223873191022e-07 seconds.
Warning: Simulation tolerance relaxed to achieve convergence from 1.3695223873391023e-07 to 1.3695223873491023e-07 seconds.
Warning: Simulation tolerance relaxed to achieve convergence from 1.3695223873591023e-07 to 1.3695223873691023e-07 seconds.
Warning: Simulation tolerance relaxed to achieve convergence from 1.3695223873691023e-07 to 1.3695223873791023e-07 seconds.
Warning: Simulation tolerance relaxed to achieve convergence from 1.3695223873791023e-07 to 1.3695223873891023e-07 seconds.
Warning: Simulation tolerance relaxed to achieve convergence from 1.3695223873891023e-07 to 1.3695223873991024e-07 seconds.
Warning: Simulation tolerance relaxed to achieve convergence from 1.3695223873991024e-07 to 1.3695223874091024e-07 seconds.
Warning: Simulation tolerance relaxed to achieve convergence from 1.3695223874291024e-07 to 1.3695223874391024e-07 seconds.
Warning: Simulation tolerance relaxed to achieve convergence from 1.3695223874491025e-07 to 1.3695223874591025e-07 seconds.
Warning: Simulation tolerance relaxed to achieve convergence from 1.3695223874591025e-07 to 1.3695223874691025e-07 seconds.
Warning: Simulation tolerance relaxed to achieve convergence from 1.3695223874791025e-07 to 1.3695223874891025e-07 seconds.
Warning: Simulation tolerance relaxed to achieve convergence from 1.3695223874891025e-07 to 1.3695223874991025e-07 seconds.
Warning: Simulation tolerance relaxed to achieve convergence from 1.3695223874991025e-07 to 1.3695223875091026e-07 seconds.
Warning: Simulation tolerance relaxed to achieve convergence from 1.3695223875091026e-07 to 1.3695223875191026e-07 seconds.
Warning: Simulation tolerance relaxed to achieve convergence from 1.3695223875191026e-07 to 1.3695223875291026e-07 seconds.
Warning: Simulation tolerance relaxed to achieve convergence from 1.3695223875291026e-07 to 1.3695223875391026e-07 seconds.
Warning: Simulation tolerance relaxed to achieve convergence from 1.3695223875391026e-07 to 1.3695223875491026e-07 seconds.
Warning: Simulation tolerance relaxed to achieve convergence from 1.3695223875591027e-07 to 1.3695223875691027e-07 seconds.
Warning: Simulation tolerance relaxed to achieve convergence from 1.3695223875691027e-07 to 1.3695223875791027e-07 seconds.
Warning: Simulation tolerance relaxed to achieve convergence from 1.3695223875891027e-07 to 1.3695223875991027e-07 seconds.
Warning: Simulation tolerance relaxed to achieve convergence from 1.3695223875991027e-07 to 1.3695223876091027e-07 seconds.
Warning: Simulation tolerance relaxed to achieve convergence from 1.3695223876191028e-07 to 1.3695223876291028e-07 seconds.
Warning: Simulation tolerance relaxed to achieve convergence from 1.3695223876291028e-07 to 1.3695223876391028e-07 seconds.
Warning: Simulation tolerance relaxed to achieve convergence from 1.3695223876391028e-07 to 1.3695223876491028e-07 seconds.
Warning: Simulation tolerance relaxed to achieve convergence from 1.3695223876591028e-07 to 1.3695223876691029e-07 seconds.
Warning: Simulation tolerance relaxed to achieve convergence from 1.3695223876791029e-07 to 1.3695223876891029e-07 seconds.
Warning: Simulation tolerance relaxed to achieve convergence from 1.3695223876891029e-07 to 1.3695223876991029e-07 seconds.
Warning: Simulation tolerance relaxed to achieve convergence from 1.3695223877091029e-07 to 1.3695223877191029e-07 seconds.
Warning: Simulation tolerance relaxed to achieve convergence from 1.3695223877191029e-07 to 1.3695223877291030e-07 seconds.
Warning: Simulation tolerance relaxed to achieve convergence from 1.3695223877391030e-07 to 1.3695223877491030e-07 seconds.
Warning: Simulation tolerance relaxed to achieve convergence from 1.3695223877491030e-07 to 1.3695223877591030e-07 seconds.
Warning: Simulation tolerance relaxed to achieve convergence from 1.3695223877691030e-07 to 1.3695223877791030e-07 seconds.
Warning: Simulation tolerance relaxed to achieve convergence from 1.3695223877791030e-07 to 1.3695223877891031e-07 seconds.
Warning: Simulation tolerance relaxed to achieve convergence from 1.3695223877991031e-07 to 1.3695223878091031e-07 seconds.
Warning: Simulation tolerance relaxed to achieve convergence from 1.3695223878091031e-07 to 1.3695223878191031e-07 seconds.
Warning: Simulation tolerance relaxed to achieve convergence from 1.3695223878291031e-07 to 1.3695223878391032e-07 seconds.
Warning: Simulation tolerance relaxed to achieve convergence from 1.3695223878391032e-07 to 1.3695223878491032e-07 seconds.
Warning: Simulation tolerance relaxed to achieve convergence from 1.3695223878491032e-07 to 1.3695223878591032e-07 seconds.
Warning: Simulation tolerance relaxed to achieve convergence from 1.3695223878691032e-07 to 1.3695223878791032e-07 seconds.
Warning: Simulation tolerance relaxed to achieve convergence from 1.3695223878791032e-07 to 1.3695223878891032e-07 seconds.
Warning: Simulation tolerance relaxed to achieve convergence from 1.3695223879091033e-07 to 1.3695223879191033e-07 seconds.
Warning: Simulation tolerance relaxed to achieve convergence from 1.3695223879291033e-07 to 1.3695223879391033e-07 seconds.
Warning: Simulation tolerance relaxed to achieve convergence from 1.3695223879391033e-07 to 1.3695223879491034e-07 seconds.
Warning: Simulation tolerance relaxed to achieve convergence from 1.3695223879591034e-07 to 1.3695223879691034e-07 seconds.
Warning: Simulation tolerance relaxed to achieve convergence from 1.3695223879691034e-07 to 1.3695223879791034e-07 seconds.
Warning: Simulation tolerance relaxed to achieve convergence from 1.3695223879891034e-07 to 1.3695223879991034e-07 seconds.
Warning: Simulation tolerance relaxed to achieve convergence from 1.3695223879991034e-07 to 1.3695223880091035e-07 seconds.
Warning: Simulation tolerance relaxed to achieve convergence from 1.3695223880191035e-07 to 1.3695223880291035e-07 seconds.
Warning: Simulation tolerance relaxed to achieve convergence from 1.3695223880291035e-07 to 1.3695223880391035e-07 seconds.
Warning: Simulation tolerance relaxed to achieve convergence from 1.3695223880591036e-07 to 1.3695223880691036e-07 seconds.
Warning: Simulation tolerance relaxed to achieve convergence from 1.3695223880791036e-07 to 1.3695223880891036e-07 seconds.
Warning: Simulation tolerance relaxed to achieve convergence from 1.3695223880891036e-07 to 1.3695223880991036e-07 seconds.
Warning: Simulation tolerance relaxed to achieve convergence from 1.3695223881091036e-07 to 1.3695223881191037e-07 seconds.
Warning: Simulation tolerance relaxed to achieve convergence from 1.3695223881191037e-07 to 1.3695223881291037e-07 seconds.
Warning: Simulation tolerance relaxed to achieve convergence from 1.3695223881391037e-07 to 1.3695223881491037e-07 seconds.
Warning: Simulation tolerance relaxed to achieve convergence from 1.3695223881491037e-07 to 1.3695223881591037e-07 seconds.
Warning: Simulation tolerance relaxed to achieve convergence from 1.3695223881791038e-07 to 1.3695223881891038e-07 seconds.
Warning: Simulation tolerance relaxed to achieve convergence from 1.3695223881991038e-07 to 1.3695223882091038e-07 seconds.
Warning: Simulation tolerance relaxed to achieve convergence from 1.3695223882091038e-07 to 1.3695223882191038e-07 seconds.
Warning: Simulation tolerance relaxed to achieve convergence from 1.3695223882291039e-07 to 1.3695223882391039e-07 seconds.
Warning: Simulation tolerance relaxed to achieve convergence from 1.3695223882391039e-07 to 1.3695223882491039e-07 seconds.
Warning: Simulation tolerance relaxed to achieve convergence from 1.3695223882591039e-07 to 1.3695223882691039e-07 seconds.
Warning: Simulation tolerance relaxed to achieve convergence from 1.3695223882691039e-07 to 1.3695223882791040e-07 seconds.
Warning: Simulation tolerance relaxed to achieve convergence from 1.3695223882991040e-07 to 1.3695223883091040e-07 seconds.
Warning: Simulation tolerance relaxed to achieve convergence from 1.3695223883191040e-07 to 1.3695223883291040e-07 seconds.
Warning: Simulation tolerance relaxed to achieve convergence from 1.3695223883291040e-07 to 1.3695223883391041e-07 seconds.
Warning: Simulation tolerance relaxed to achieve convergence from 1.3695223883591041e-07 to 1.3695223883691041e-07 seconds.
Warning: Simulation tolerance relaxed to achieve convergence from 1.3695223883791041e-07 to 1.3695223883891041e-07 seconds.
Warning: Simulation tolerance relaxed to achieve convergence from 1.3695223883891041e-07 to 1.3695223883991042e-07 seconds.
Warning: Simulation tolerance relaxed to achieve convergence from 1.3695223883991042e-07 to 1.3695223884091042e-07 seconds.
Warning: Simulation tolerance relaxed to achieve convergence from 1.3695223884191042e-07 to 1.3695223884291042e-07 seconds.
Warning: Simulation tolerance relaxed to achieve convergence from 1.3695223884391042e-07 to 1.3695223884491043e-07 seconds.
Warning: Simulation tolerance relaxed to achieve convergence from 1.3695223884491043e-07 to 1.3695223884591043e-07 seconds.
Warning: Simulation tolerance relaxed to achieve convergence from 1.3695223884791043e-07 to 1.3695223884891043e-07 seconds.
Warning: Simulation tolerance relaxed to achieve convergence from 1.3695223884991043e-07 to 1.3695223885091044e-07 seconds.
Warning: Simulation tolerance relaxed to achieve convergence from 1.3695223885091044e-07 to 1.3695223885191044e-07 seconds.
Warning: Simulation tolerance relaxed to achieve convergence from 1.3695223885291044e-07 to 1.3695223885391044e-07 seconds.
Warning: Simulation tolerance relaxed to achieve convergence from 1.3695223885391044e-07 to 1.3695223885491044e-07 seconds.
Warning: Simulation tolerance relaxed to achieve convergence from 1.3695223885591045e-07 to 1.3695223885691045e-07 seconds.
Warning: Simulation tolerance relaxed to achieve convergence from 1.3695223885691045e-07 to 1.3695223885791045e-07 seconds.
Warning: Simulation tolerance relaxed to achieve convergence from 1.3695223885891045e-07 to 1.3695223885991045e-07 seconds.
Warning: Simulation tolerance relaxed to achieve convergence from 1.3695223885991045e-07 to 1.3695223886091045e-07 seconds.
Warning: Simulation tolerance relaxed to achieve convergence from 1.3695223886191046e-07 to 1.3695223886291046e-07 seconds.
Warning: Simulation tolerance relaxed to achieve convergence from 1.3695223886291046e-07 to 1.3695223886391046e-07 seconds.
Warning: Simulation tolerance relaxed to achieve convergence from 1.3695223886491046e-07 to 1.3695223886591046e-07 seconds.
Warning: Simulation tolerance relaxed to achieve convergence from 1.3695223886591046e-07 to 1.3695223886691047e-07 seconds.
Warning: Simulation tolerance relaxed to achieve convergence from 1.3695223886791047e-07 to 1.3695223886891047e-07 seconds.
Warning: Simulation tolerance relaxed to achieve convergence from 1.3695223886891047e-07 to 1.3695223886991047e-07 seconds.
Warning: Simulation tolerance relaxed to achieve convergence from 1.3695223887091047e-07 to 1.3695223887191047e-07 seconds.
Warning: Simulation tolerance relaxed to achieve convergence from 1.3695223887191047e-07 to 1.3695223887291048e-07 seconds.
Warning: Simulation tolerance relaxed to achieve convergence from 1.3695223887391048e-07 to 1.3695223887491048e-07 seconds.
Warning: Simulation tolerance relaxed to achieve convergence from 1.3695223887491048e-07 to 1.3695223887591048e-07 seconds.
Warning: Simulation tolerance relaxed to achieve convergence from 1.3695223887591048e-07 to 1.3695223887691048e-07 seconds.
Warning: Simulation tolerance relaxed to achieve convergence from 1.3695223887691048e-07 to 1.3695223887791049e-07 seconds.
Warning: Simulation tolerance relaxed to achieve convergence from 1.3695223887791049e-07 to 1.3695223887891049e-07 seconds.
Warning: Simulation tolerance relaxed to achieve convergence from 1.3695223887991049e-07 to 1.3695223888091049e-07 seconds.
Warning: Simulation tolerance relaxed to achieve convergence from 1.3695223888091049e-07 to 1.3695223888191049e-07 seconds.
Warning: Simulation tolerance relaxed to achieve convergence from 1.3695223888291049e-07 to 1.3695223888391050e-07 seconds.
Warning: Simulation tolerance relaxed to achieve convergence from 1.3695223888391050e-07 to 1.3695223888491050e-07 seconds.
Warning: Simulation tolerance relaxed to achieve convergence from 1.3695223888591050e-07 to 1.3695223888691050e-07 seconds.
Warning: Simulation tolerance relaxed to achieve convergence from 1.3695223888691050e-07 to 1.3695223888791050e-07 seconds.
Warning: Simulation tolerance relaxed to achieve convergence from 1.3695223888891051e-07 to 1.3695223888991051e-07 seconds.
Warning: Simulation tolerance relaxed to achieve convergence from 1.3695223889091051e-07 to 1.3695223889191051e-07 seconds.
Warning: Simulation tolerance relaxed to achieve convergence from 1.3695223889191051e-07 to 1.3695223889291051e-07 seconds.
Warning: Simulation tolerance relaxed to achieve convergence from 1.3695223889391051e-07 to 1.3695223889491052e-07 seconds.
Warning: Simulation tolerance relaxed to achieve convergence from 1.3695223889491052e-07 to 1.3695223889591052e-07 seconds.
Warning: Simulation tolerance relaxed to achieve convergence from 1.3695223889691052e-07 to 1.3695223889791052e-07 seconds.
Warning: Simulation tolerance relaxed to achieve convergence from 1.3695223889791052e-07 to 1.3695223889891052e-07 seconds.
Warning: Simulation tolerance relaxed to achieve convergence from 1.3695223890091053e-07 to 1.3695223890191053e-07 seconds.
Warning: Simulation tolerance relaxed to achieve convergence from 1.3695223890291053e-07 to 1.3695223890391053e-07 seconds.
Warning: Simulation tolerance relaxed to achieve convergence from 1.3695223890391053e-07 to 1.3695223890491053e-07 seconds.
Warning: Simulation tolerance relaxed to achieve convergence from 1.3695223890691054e-07 to 1.3695223890791054e-07 seconds.
Warning: Simulation tolerance relaxed to achieve convergence from 1.3695223890891054e-07 to 1.3695223890991054e-07 seconds.
Warning: Simulation tolerance relaxed to achieve convergence from 1.3695223890991054e-07 to 1.3695223891091054e-07 seconds.
Warning: Simulation tolerance relaxed to achieve convergence from 1.3695223891291055e-07 to 1.3695223891391055e-07 seconds.
Warning: Simulation tolerance relaxed to achieve convergence from 1.3695223891491055e-07 to 1.3695223891591055e-07 seconds.
Warning: Simulation tolerance relaxed to achieve convergence from 1.3695223891591055e-07 to 1.3695223891691056e-07 seconds.
Warning: Simulation tolerance relaxed to achieve convergence from 1.3695223891691056e-07 to 1.3695223891791056e-07 seconds.
Warning: Simulation tolerance relaxed to achieve convergence from 1.3695223891991056e-07 to 1.3695223892091056e-07 seconds.
Warning: Simulation tolerance relaxed to achieve convergence from 1.3695223892191056e-07 to 1.3695223892291057e-07 seconds.
Warning: Simulation tolerance relaxed to achieve convergence from 1.3695223892291057e-07 to 1.3695223892391057e-07 seconds.
Warning: Simulation tolerance relaxed to achieve convergence from 1.3695223892491057e-07 to 1.3695223892591057e-07 seconds.
Warning: Simulation tolerance relaxed to achieve convergence from 1.3695223892591057e-07 to 1.3695223892691057e-07 seconds.
Warning: Simulation tolerance relaxed to achieve convergence from 1.3695223892791058e-07 to 1.3695223892891058e-07 seconds.
Warning: Simulation tolerance relaxed to achieve convergence from 1.3695223892891058e-07 to 1.3695223892991058e-07 seconds.
Warning: Simulation tolerance relaxed to achieve convergence from 1.3695223893091058e-07 to 1.3695223893191058e-07 seconds.
Warning: Simulation tolerance relaxed to achieve convergence from 1.3695223893191058e-07 to 1.3695223893291058e-07 seconds.
Warning: Simulation tolerance relaxed to achieve convergence from 1.3695223893291058e-07 to 1.3695223893391059e-07 seconds.
Warning: Simulation tolerance relaxed to achieve convergence from 1.3695223893391059e-07 to 1.3695223893491059e-07 seconds.
Warning: Simulation tolerance relaxed to achieve convergence from 1.3695223893491059e-07 to 1.3695223893591059e-07 seconds.
Warning: Simulation tolerance relaxed to achieve convergence from 1.3695223893691059e-07 to 1.3695223893791059e-07 seconds.
Warning: Simulation tolerance relaxed to achieve convergence from 1.3695223893791059e-07 to 1.3695223893891060e-07 seconds.
Warning: Simulation tolerance relaxed to achieve convergence from 1.3695223894091060e-07 to 1.3695223894191060e-07 seconds.
Warning: Simulation tolerance relaxed to achieve convergence from 1.3695223894291060e-07 to 1.3695223894391060e-07 seconds.
Warning: Simulation tolerance relaxed to achieve convergence from 1.3695223894391060e-07 to 1.3695223894491061e-07 seconds.
Warning: Simulation tolerance relaxed to achieve convergence from 1.3695223894691061e-07 to 1.3695223894791061e-07 seconds.
Warning: Simulation tolerance relaxed to achieve convergence from 1.3695223894891061e-07 to 1.3695223894991062e-07 seconds.
Warning: Simulation tolerance relaxed to achieve convergence from 1.3695223894991062e-07 to 1.3695223895091062e-07 seconds.
Warning: Simulation tolerance relaxed to achieve convergence from 1.3695223895291062e-07 to 1.3695223895391062e-07 seconds.
Warning: Simulation tolerance relaxed to achieve convergence from 1.3695223895491062e-07 to 1.3695223895591063e-07 seconds.
Warning: Simulation tolerance relaxed to achieve convergence from 1.3695223895591063e-07 to 1.3695223895691063e-07 seconds.
Warning: Simulation tolerance relaxed to achieve convergence from 1.3695223895791063e-07 to 1.3695223895891063e-07 seconds.
Warning: Simulation tolerance relaxed to achieve convergence from 1.3695223895891063e-07 to 1.3695223895991063e-07 seconds.
Warning: Simulation tolerance relaxed to achieve convergence from 1.3695223896091063e-07 to 1.3695223896191064e-07 seconds.
Warning: Simulation tolerance relaxed to achieve convergence from 1.3695223896191064e-07 to 1.3695223896291064e-07 seconds.
Warning: Simulation tolerance relaxed to achieve convergence from 1.3695223896391064e-07 to 1.3695223896491064e-07 seconds.
Warning: Simulation tolerance relaxed to achieve convergence from 1.3695223896491064e-07 to 1.3695223896591064e-07 seconds.
Warning: Simulation tolerance relaxed to achieve convergence from 1.3695223896791065e-07 to 1.3695223896891065e-07 seconds.
Warning: Simulation tolerance relaxed to achieve convergence from 1.3695223896991065e-07 to 1.3695223897091065e-07 seconds.
Warning: Simulation tolerance relaxed to achieve convergence from 1.3695223897091065e-07 to 1.3695223897191065e-07 seconds.
Warning: Simulation tolerance relaxed to achieve convergence from 1.3695223897291066e-07 to 1.3695223897391066e-07 seconds.
Warning: Simulation tolerance relaxed to achieve convergence from 1.3695223897391066e-07 to 1.3695223897491066e-07 seconds.
Warning: Simulation tolerance relaxed to achieve convergence from 1.3695223897591066e-07 to 1.3695223897691066e-07 seconds.
Warning: Simulation tolerance relaxed to achieve convergence from 1.3695223897691066e-07 to 1.3695223897791067e-07 seconds.
Warning: Simulation tolerance relaxed to achieve convergence from 1.3695223897891067e-07 to 1.3695223897991067e-07 seconds.
Warning: Simulation tolerance relaxed to achieve convergence from 1.3695223897991067e-07 to 1.3695223898091067e-07 seconds.
Warning: Simulation tolerance relaxed to achieve convergence from 1.3695223898091067e-07 to 1.3695223898191067e-07 seconds.
Warning: Simulation tolerance relaxed to achieve convergence from 1.3695223898191067e-07 to 1.3695223898291067e-07 seconds.
Warning: Simulation tolerance relaxed to achieve convergence from 1.3695223898291067e-07 to 1.3695223898391068e-07 seconds.
Warning: Simulation tolerance relaxed to achieve convergence from 1.3695223898591068e-07 to 1.3695223898691068e-07 seconds.
Warning: Simulation tolerance relaxed to achieve convergence from 1.3695223898791068e-07 to 1.3695223898891069e-07 seconds.
Warning: Simulation tolerance relaxed to achieve convergence from 1.3695223898891069e-07 to 1.3695223898991069e-07 seconds.
Warning: Simulation tolerance relaxed to achieve convergence from 1.3695223899091069e-07 to 1.3695223899191069e-07 seconds.
Warning: Simulation tolerance relaxed to achieve convergence from 1.3695223899191069e-07 to 1.3695223899291069e-07 seconds.
Warning: Simulation tolerance relaxed to achieve convergence from 1.3695223899391069e-07 to 1.3695223899491070e-07 seconds.
Warning: Simulation tolerance relaxed to achieve convergence from 1.3695223899491070e-07 to 1.3695223899591070e-07 seconds.
Warning: Simulation tolerance relaxed to achieve convergence from 1.3695223899691070e-07 to 1.3695223899791070e-07 seconds.
Warning: Simulation tolerance relaxed to achieve convergence from 1.3695223899791070e-07 to 1.3695223899891070e-07 seconds.
Warning: Simulation tolerance relaxed to achieve convergence from 1.3695223899991071e-07 to 1.3695223900091071e-07 seconds.
Warning: Simulation tolerance relaxed to achieve convergence from 1.3695223900091071e-07 to 1.3695223900191071e-07 seconds.
Warning: Simulation tolerance relaxed to achieve convergence from 1.3695223900191071e-07 to 1.3695223900291071e-07 seconds.
Warning: Simulation tolerance relaxed to achieve convergence from 1.3695223900291071e-07 to 1.3695223900391071e-07 seconds.
Warning: Simulation tolerance relaxed to achieve convergence from 1.3695223900391071e-07 to 1.3695223900491071e-07 seconds.
Warning: Simulation tolerance relaxed to achieve convergence from 1.3695223900691072e-07 to 1.3695223900791072e-07 seconds.
Warning: Simulation tolerance relaxed to achieve convergence from 1.3695223900891072e-07 to 1.3695223900991072e-07 seconds.
Warning: Simulation tolerance relaxed to achieve convergence from 1.3695223900991072e-07 to 1.3695223901091073e-07 seconds.
Warning: Simulation tolerance relaxed to achieve convergence from 1.3695223901291073e-07 to 1.3695223901391073e-07 seconds.
Warning: Simulation tolerance relaxed to achieve convergence from 1.3695223901491073e-07 to 1.3695223901591073e-07 seconds.
Warning: Simulation tolerance relaxed to achieve convergence from 1.3695223901591073e-07 to 1.3695223901691074e-07 seconds.
Warning: Simulation tolerance relaxed to achieve convergence from 1.3695223901891074e-07 to 1.3695223901991074e-07 seconds.
Warning: Simulation tolerance relaxed to achieve convergence from 1.3695223902091074e-07 to 1.3695223902191075e-07 seconds.
Warning: Simulation tolerance relaxed to achieve convergence from 1.3695223902191075e-07 to 1.3695223902291075e-07 seconds.
Warning: Simulation tolerance relaxed to achieve convergence from 1.3695223902491075e-07 to 1.3695223902591075e-07 seconds.
Warning: Simulation tolerance relaxed to achieve convergence from 1.3695223902691075e-07 to 1.3695223902791076e-07 seconds.
Warning: Simulation tolerance relaxed to achieve convergence from 1.3695223902791076e-07 to 1.3695223902891076e-07 seconds.
Warning: Simulation tolerance relaxed to achieve convergence from 1.3695223902891076e-07 to 1.3695223902991076e-07 seconds.
Warning: Simulation tolerance relaxed to achieve convergence from 1.3695223902991076e-07 to 1.3695223903091076e-07 seconds.
Warning: Simulation tolerance relaxed to achieve convergence from 1.3695223903091076e-07 to 1.3695223903191076e-07 seconds.
Warning: Simulation tolerance relaxed to achieve convergence from 1.3695223903191076e-07 to 1.3695223903291076e-07 seconds.
Warning: Simulation tolerance relaxed to achieve convergence from 1.3695223903291076e-07 to 1.3695223903391077e-07 seconds.
Warning: Simulation tolerance relaxed to achieve convergence from 1.3695223903491077e-07 to 1.3695223903591077e-07 seconds.
Warning: Simulation tolerance relaxed to achieve convergence from 1.3695223903591077e-07 to 1.3695223903691077e-07 seconds.
Warning: Simulation tolerance relaxed to achieve convergence from 1.3695223903791077e-07 to 1.3695223903891078e-07 seconds.
Warning: Simulation tolerance relaxed to achieve convergence from 1.3695223903891078e-07 to 1.3695223903991078e-07 seconds.
Warning: Simulation tolerance relaxed to achieve convergence from 1.3695223904191078e-07 to 1.3695223904291078e-07 seconds.
Warning: Simulation tolerance relaxed to achieve convergence from 1.3695223904391078e-07 to 1.3695223904491079e-07 seconds.
Warning: Simulation tolerance relaxed to achieve convergence from 1.3695223904491079e-07 to 1.3695223904591079e-07 seconds.
Warning: Simulation tolerance relaxed to achieve convergence from 1.3695223904691079e-07 to 1.3695223904791079e-07 seconds.
Warning: Simulation tolerance relaxed to achieve convergence from 1.3695223904791079e-07 to 1.3695223904891079e-07 seconds.
Warning: Simulation tolerance relaxed to achieve convergence from 1.3695223905091080e-07 to 1.3695223905191080e-07 seconds.
Warning: Simulation tolerance relaxed to achieve convergence from 1.3695223905291080e-07 to 1.3695223905391080e-07 seconds.
Warning: Simulation tolerance relaxed to achieve convergence from 1.3695223905391080e-07 to 1.3695223905491080e-07 seconds.
Warning: Simulation tolerance relaxed to achieve convergence from 1.3695223905591081e-07 to 1.3695223905691081e-07 seconds.
Warning: Simulation tolerance relaxed to achieve convergence from 1.3695223905691081e-07 to 1.3695223905791081e-07 seconds.
Warning: Simulation tolerance relaxed to achieve convergence from 1.3695223905891081e-07 to 1.3695223905991081e-07 seconds.
Warning: Simulation tolerance relaxed to achieve convergence from 1.3695223905991081e-07 to 1.3695223906091082e-07 seconds.
Warning: Simulation tolerance relaxed to achieve convergence from 1.3695223906091082e-07 to 1.3695223906191082e-07 seconds.
Warning: Simulation tolerance relaxed to achieve convergence from 1.3695223906291082e-07 to 1.3695223906391082e-07 seconds.
Warning: Simulation tolerance relaxed to achieve convergence from 1.3695223906491082e-07 to 1.3695223906591082e-07 seconds.
Warning: Simulation tolerance relaxed to achieve convergence from 1.3695223906591082e-07 to 1.3695223906691083e-07 seconds.
Warning: Simulation tolerance relaxed to achieve convergence from 1.3695223906791083e-07 to 1.3695223906891083e-07 seconds.
Warning: Simulation tolerance relaxed to achieve convergence from 1.3695223906891083e-07 to 1.3695223906991083e-07 seconds.
Warning: Simulation tolerance relaxed to achieve convergence from 1.3695223906991083e-07 to 1.3695223907091083e-07 seconds.
Warning: Simulation tolerance relaxed to achieve convergence from 1.3695223907091083e-07 to 1.3695223907191084e-07 seconds.
Warning: Simulation tolerance relaxed to achieve convergence from 1.3695223907191084e-07 to 1.3695223907291084e-07 seconds.
Warning: Simulation tolerance relaxed to achieve convergence from 1.3695223907491084e-07 to 1.3695223907591084e-07 seconds.
Warning: Simulation tolerance relaxed to achieve convergence from 1.3695223907591084e-07 to 1.3695223907691084e-07 seconds.
Warning: Simulation tolerance relaxed to achieve convergence from 1.3695223907691084e-07 to 1.3695223907791085e-07 seconds.
Warning: Simulation tolerance relaxed to achieve convergence from 1.3695223907791085e-07 to 1.3695223907891085e-07 seconds.
Warning: Simulation tolerance relaxed to achieve convergence from 1.3695223908091085e-07 to 1.3695223908191085e-07 seconds.
Warning: Simulation tolerance relaxed to achieve convergence from 1.3695223908191085e-07 to 1.3695223908291086e-07 seconds.
Warning: Simulation tolerance relaxed to achieve convergence from 1.3695223908291086e-07 to 1.3695223908391086e-07 seconds.
Warning: Simulation tolerance relaxed to achieve convergence from 1.3695223908391086e-07 to 1.3695223908491086e-07 seconds.
Warning: Simulation tolerance relaxed to achieve convergence from 1.3695223908591086e-07 to 1.3695223908691086e-07 seconds.
Warning: Simulation tolerance relaxed to achieve convergence from 1.3695223908691086e-07 to 1.3695223908791086e-07 seconds.
Warning: Simulation tolerance relaxed to achieve convergence from 1.3695223908791086e-07 to 1.3695223908891087e-07 seconds.
Warning: Simulation tolerance relaxed to achieve convergence from 1.3695223908891087e-07 to 1.3695223908991087e-07 seconds.
Warning: Simulation tolerance relaxed to achieve convergence from 1.3695223908991087e-07 to 1.3695223909091087e-07 seconds.
Warning: Simulation tolerance relaxed to achieve convergence from 1.3695223909291087e-07 to 1.3695223909391087e-07 seconds.
Warning: Simulation tolerance relaxed to achieve convergence from 1.3695223909391087e-07 to 1.3695223909491088e-07 seconds.
Warning: Simulation tolerance relaxed to achieve convergence from 1.3695223909491088e-07 to 1.3695223909591088e-07 seconds.
Warning: Simulation tolerance relaxed to achieve convergence from 1.3695223909591088e-07 to 1.3695223909691088e-07 seconds.
Warning: Simulation tolerance relaxed to achieve convergence from 1.3695223909691088e-07 to 1.3695223909791088e-07 seconds.
Warning: Simulation tolerance relaxed to achieve convergence from 1.3695223909791088e-07 to 1.3695223909891088e-07 seconds.
Warning: Simulation tolerance relaxed to achieve convergence from 1.3695223909891088e-07 to 1.3695223909991089e-07 seconds.
Warning: Simulation tolerance relaxed to achieve convergence from 1.3695223910091089e-07 to 1.3695223910191089e-07 seconds.
Warning: Simulation tolerance relaxed to achieve convergence from 1.3695223910191089e-07 to 1.3695223910291089e-07 seconds.
Warning: Simulation tolerance relaxed to achieve convergence from 1.3695223910391089e-07 to 1.3695223910491089e-07 seconds.
Warning: Simulation tolerance relaxed to achieve convergence from 1.3695223910491089e-07 to 1.3695223910591090e-07 seconds.
Warning: Simulation tolerance relaxed to achieve convergence from 1.3695223910591090e-07 to 1.3695223910691090e-07 seconds.
Warning: Simulation tolerance relaxed to achieve convergence from 1.3695223910691090e-07 to 1.3695223910791090e-07 seconds.
Warning: Simulation tolerance relaxed to achieve convergence from 1.3695223910791090e-07 to 1.3695223910891090e-07 seconds.
Warning: Simulation tolerance relaxed to achieve convergence from 1.3695223910991090e-07 to 1.3695223911091091e-07 seconds.
Warning: Simulation tolerance relaxed to achieve convergence from 1.3695223911091091e-07 to 1.3695223911191091e-07 seconds.
Warning: Simulation tolerance relaxed to achieve convergence from 1.3695223911291091e-07 to 1.3695223911391091e-07 seconds.
Warning: Simulation tolerance relaxed to achieve convergence from 1.3695223911391091e-07 to 1.3695223911491091e-07 seconds.
Warning: Simulation tolerance relaxed to achieve convergence from 1.3695223911591091e-07 to 1.3695223911691092e-07 seconds.
Warning: Simulation tolerance relaxed to achieve convergence from 1.3695223911691092e-07 to 1.3695223911791092e-07 seconds.
Warning: Simulation tolerance relaxed to achieve convergence from 1.3695223911891092e-07 to 1.3695223911991092e-07 seconds.
Warning: Simulation tolerance relaxed to achieve convergence from 1.3695223911991092e-07 to 1.3695223912091092e-07 seconds.
Warning: Simulation tolerance relaxed to achieve convergence from 1.3695223912091092e-07 to 1.3695223912191093e-07 seconds.
Warning: Simulation tolerance relaxed to achieve convergence from 1.3695223912191093e-07 to 1.3695223912291093e-07 seconds.
Warning: Simulation tolerance relaxed to achieve convergence from 1.3695223912291093e-07 to 1.3695223912391093e-07 seconds.
Warning: Simulation tolerance relaxed to achieve convergence from 1.3695223912491093e-07 to 1.3695223912591093e-07 seconds.
Warning: Simulation tolerance relaxed to achieve convergence from 1.3695223912591093e-07 to 1.3695223912691093e-07 seconds.
Warning: Simulation tolerance relaxed to achieve convergence from 1.3695223912791094e-07 to 1.3695223912891094e-07 seconds.
Warning: Simulation tolerance relaxed to achieve convergence from 1.3695223912891094e-07 to 1.3695223912991094e-07 seconds.
Warning: Simulation tolerance relaxed to achieve convergence from 1.3695223913191094e-07 to 1.3695223913291095e-07 seconds.
Warning: Simulation tolerance relaxed to achieve convergence from 1.3695223913391095e-07 to 1.3695223913491095e-07 seconds.
Warning: Simulation tolerance relaxed to achieve convergence from 1.3695223913491095e-07 to 1.3695223913591095e-07 seconds.
Warning: Simulation tolerance relaxed to achieve convergence from 1.3695223913691095e-07 to 1.3695223913791095e-07 seconds.
Warning: Simulation tolerance relaxed to achieve convergence from 1.3695223913791095e-07 to 1.3695223913891096e-07 seconds.
Warning: Simulation tolerance relaxed to achieve convergence from 1.3695223913991096e-07 to 1.3695223914091096e-07 seconds.
Warning: Simulation tolerance relaxed to achieve convergence from 1.3695223914091096e-07 to 1.3695223914191096e-07 seconds.
Warning: Simulation tolerance relaxed to achieve convergence from 1.3695223914291096e-07 to 1.3695223914391097e-07 seconds.
Warning: Simulation tolerance relaxed to achieve convergence from 1.3695223914391097e-07 to 1.3695223914491097e-07 seconds.
Warning: Simulation tolerance relaxed to achieve convergence from 1.3695223914591097e-07 to 1.3695223914691097e-07 seconds.
Warning: Simulation tolerance relaxed to achieve convergence from 1.3695223914691097e-07 to 1.3695223914791097e-07 seconds.
Warning: Simulation tolerance relaxed to achieve convergence from 1.3695223914991098e-07 to 1.3695223915091098e-07 seconds.
Warning: Simulation tolerance relaxed to achieve convergence from 1.3695223915091098e-07 to 1.3695223915191098e-07 seconds.
Warning: Simulation tolerance relaxed to achieve convergence from 1.3695223915191098e-07 to 1.3695223915291098e-07 seconds.
Warning: Simulation tolerance relaxed to achieve convergence from 1.3695223915291098e-07 to 1.3695223915391098e-07 seconds.
Warning: Simulation tolerance relaxed to achieve convergence from 1.3695223915591099e-07 to 1.3695223915691099e-07 seconds.
Warning: Simulation tolerance relaxed to achieve convergence from 1.3695223915791099e-07 to 1.3695223915891099e-07 seconds.
Warning: Simulation tolerance relaxed to achieve convergence from 1.3695223915891099e-07 to 1.3695223915991099e-07 seconds.
Warning: Simulation tolerance relaxed to achieve convergence from 1.3695223916191100e-07 to 1.3695223916291100e-07 seconds.
Warning: Simulation tolerance relaxed to achieve convergence from 1.3695223916391100e-07 to 1.3695223916491100e-07 seconds.
Warning: Simulation tolerance relaxed to achieve convergence from 1.3695223916491100e-07 to 1.3695223916591100e-07 seconds.
Warning: Simulation tolerance relaxed to achieve convergence from 1.3695223916691101e-07 to 1.3695223916791101e-07 seconds.
Warning: Simulation tolerance relaxed to achieve convergence from 1.3695223916791101e-07 to 1.3695223916891101e-07 seconds.
Warning: Simulation tolerance relaxed to achieve convergence from 1.3695223916991101e-07 to 1.3695223917091101e-07 seconds.
Warning: Simulation tolerance relaxed to achieve convergence from 1.3695223917091101e-07 to 1.3695223917191102e-07 seconds.
Warning: Simulation tolerance relaxed to achieve convergence from 1.3695223917291102e-07 to 1.3695223917391102e-07 seconds.
Warning: Simulation tolerance relaxed to achieve convergence from 1.3695223917391102e-07 to 1.3695223917491102e-07 seconds.
Warning: Simulation tolerance relaxed to achieve convergence from 1.3695223917591102e-07 to 1.3695223917691102e-07 seconds.
Warning: Simulation tolerance relaxed to achieve convergence from 1.3695223917691102e-07 to 1.3695223917791103e-07 seconds.
Warning: Simulation tolerance relaxed to achieve convergence from 1.3695223917891103e-07 to 1.3695223917991103e-07 seconds.
Warning: Simulation tolerance relaxed to achieve convergence from 1.3695223917991103e-07 to 1.3695223918091103e-07 seconds.
Warning: Simulation tolerance relaxed to achieve convergence from 1.3695223918191103e-07 to 1.3695223918291104e-07 seconds.
Warning: Simulation tolerance relaxed to achieve convergence from 1.3695223918291104e-07 to 1.3695223918391104e-07 seconds.
Warning: Simulation tolerance relaxed to achieve convergence from 1.3695223918491104e-07 to 1.3695223918591104e-07 seconds.
Warning: Simulation tolerance relaxed to achieve convergence from 1.3695223918591104e-07 to 1.3695223918691104e-07 seconds.
Warning: Simulation tolerance relaxed to achieve convergence from 1.3695223918691104e-07 to 1.3695223918791104e-07 seconds.
Warning: Simulation tolerance relaxed to achieve convergence from 1.3695223918891105e-07 to 1.3695223918991105e-07 seconds.
Warning: Simulation tolerance relaxed to achieve convergence from 1.3695223918991105e-07 to 1.3695223919091105e-07 seconds.
Warning: Simulation tolerance relaxed to achieve convergence from 1.3695223919191105e-07 to 1.3695223919291105e-07 seconds.
Warning: Simulation tolerance relaxed to achieve convergence from 1.3695223919291105e-07 to 1.3695223919391106e-07 seconds.
Warning: Simulation tolerance relaxed to achieve convergence from 1.3695223919591106e-07 to 1.3695223919691106e-07 seconds.
Warning: Simulation tolerance relaxed to achieve convergence from 1.3695223919791106e-07 to 1.3695223919891106e-07 seconds.
Warning: Simulation tolerance relaxed to achieve convergence from 1.3695223919891106e-07 to 1.3695223919991107e-07 seconds.
Warning: Simulation tolerance relaxed to achieve convergence from 1.3695223919991107e-07 to 1.3695223920091107e-07 seconds.
Warning: Simulation tolerance relaxed to achieve convergence from 1.3695223920091107e-07 to 1.3695223920191107e-07 seconds.
Warning: Simulation tolerance relaxed to achieve convergence from 1.3695223920391107e-07 to 1.3695223920491108e-07 seconds.
Warning: Simulation tolerance relaxed to achieve convergence from 1.3695223920591108e-07 to 1.3695223920691108e-07 seconds.
Warning: Simulation tolerance relaxed to achieve convergence from 1.3695223920691108e-07 to 1.3695223920791108e-07 seconds.
Warning: Simulation tolerance relaxed to achieve convergence from 1.3695223920991108e-07 to 1.3695223921091109e-07 seconds.
Warning: Simulation tolerance relaxed to achieve convergence from 1.3695223921191109e-07 to 1.3695223921291109e-07 seconds.
Warning: Simulation tolerance relaxed to achieve convergence from 1.3695223921291109e-07 to 1.3695223921391109e-07 seconds.
Warning: Simulation tolerance relaxed to achieve convergence from 1.3695223921491109e-07 to 1.3695223921591109e-07 seconds.
Warning: Simulation tolerance relaxed to achieve convergence from 1.3695223921591109e-07 to 1.3695223921691110e-07 seconds.
Warning: Simulation tolerance relaxed to achieve convergence from 1.3695223921791110e-07 to 1.3695223921891110e-07 seconds.
Warning: Simulation tolerance relaxed to achieve convergence from 1.3695223921891110e-07 to 1.3695223921991110e-07 seconds.
Warning: Simulation tolerance relaxed to achieve convergence from 1.3695223921991110e-07 to 1.3695223922091110e-07 seconds.
Warning: Simulation tolerance relaxed to achieve convergence from 1.3695223922091110e-07 to 1.3695223922191111e-07 seconds.
Warning: Simulation tolerance relaxed to achieve convergence from 1.3695223922191111e-07 to 1.3695223922291111e-07 seconds.
Warning: Simulation tolerance relaxed to achieve convergence from 1.3695223922391111e-07 to 1.3695223922491111e-07 seconds.
Warning: Simulation tolerance relaxed to achieve convergence from 1.3695223922491111e-07 to 1.3695223922591111e-07 seconds.
Warning: Simulation tolerance relaxed to achieve convergence from 1.3695223922791112e-07 to 1.3695223922891112e-07 seconds.
Warning: Simulation tolerance relaxed to achieve convergence from 1.3695223922991112e-07 to 1.3695223923091112e-07 seconds.
Warning: Simulation tolerance relaxed to achieve convergence from 1.3695223923091112e-07 to 1.3695223923191112e-07 seconds.
Warning: Simulation tolerance relaxed to achieve convergence from 1.3695223923391113e-07 to 1.3695223923491113e-07 seconds.
Warning: Simulation tolerance relaxed to achieve convergence from 1.3695223923591113e-07 to 1.3695223923691113e-07 seconds.
Warning: Simulation tolerance relaxed to achieve convergence from 1.3695223923691113e-07 to 1.3695223923791113e-07 seconds.
Warning: Simulation tolerance relaxed to achieve convergence from 1.3695223923991114e-07 to 1.3695223924091114e-07 seconds.
Warning: Simulation tolerance relaxed to achieve convergence from 1.3695223924191114e-07 to 1.3695223924291114e-07 seconds.
Warning: Simulation tolerance relaxed to achieve convergence from 1.3695223924291114e-07 to 1.3695223924391115e-07 seconds.
Warning: Simulation tolerance relaxed to achieve convergence from 1.3695223924591115e-07 to 1.3695223924691115e-07 seconds.
Warning: Simulation tolerance relaxed to achieve convergence from 1.3695223924791115e-07 to 1.3695223924891115e-07 seconds.
Warning: Simulation tolerance relaxed to achieve convergence from 1.3695223924891115e-07 to 1.3695223924991116e-07 seconds.
Warning: Simulation tolerance relaxed to achieve convergence from 1.3695223925191116e-07 to 1.3695223925291116e-07 seconds.
Warning: Simulation tolerance relaxed to achieve convergence from 1.3695223925391116e-07 to 1.3695223925491117e-07 seconds.
Warning: Simulation tolerance relaxed to achieve convergence from 1.3695223925491117e-07 to 1.3695223925591117e-07 seconds.
Warning: Simulation tolerance relaxed to achieve convergence from 1.3695223925691117e-07 to 1.3695223925791117e-07 seconds.
Warning: Simulation tolerance relaxed to achieve convergence from 1.3695223925791117e-07 to 1.3695223925891117e-07 seconds.
Warning: Simulation tolerance relaxed to achieve convergence from 1.3695223925991117e-07 to 1.3695223926091118e-07 seconds.
Warning: Simulation tolerance relaxed to achieve convergence from 1.3695223926091118e-07 to 1.3695223926191118e-07 seconds.
Warning: Simulation tolerance relaxed to achieve convergence from 1.3695223926291118e-07 to 1.3695223926391118e-07 seconds.
Warning: Simulation tolerance relaxed to achieve convergence from 1.3695223926391118e-07 to 1.3695223926491118e-07 seconds.
Warning: Simulation tolerance relaxed to achieve convergence from 1.3695223926491118e-07 to 1.3695223926591119e-07 seconds.
Warning: Simulation tolerance relaxed to achieve convergence from 1.3695223926691119e-07 to 1.3695223926791119e-07 seconds.
Warning: Simulation tolerance relaxed to achieve convergence from 1.3695223926891119e-07 to 1.3695223926991119e-07 seconds.
Warning: Simulation tolerance relaxed to achieve convergence from 1.3695223926991119e-07 to 1.3695223927091119e-07 seconds.
Warning: Simulation tolerance relaxed to achieve convergence from 1.3695223927191120e-07 to 1.3695223927291120e-07 seconds.
Warning: Simulation tolerance relaxed to achieve convergence from 1.3695223927291120e-07 to 1.3695223927391120e-07 seconds.
Warning: Simulation tolerance relaxed to achieve convergence from 1.3695223927491120e-07 to 1.3695223927591120e-07 seconds.
Warning: Simulation tolerance relaxed to achieve convergence from 1.3695223927591120e-07 to 1.3695223927691120e-07 seconds.
Warning: Simulation tolerance relaxed to achieve convergence from 1.3695223927891121e-07 to 1.3695223927991121e-07 seconds.
Warning: Simulation tolerance relaxed to achieve convergence from 1.3695223928091121e-07 to 1.3695223928191121e-07 seconds.
Warning: Simulation tolerance relaxed to achieve convergence from 1.3695223928191121e-07 to 1.3695223928291122e-07 seconds.
Warning: Simulation tolerance relaxed to achieve convergence from 1.3695223928491122e-07 to 1.3695223928591122e-07 seconds.
Warning: Simulation tolerance relaxed to achieve convergence from 1.3695223928691122e-07 to 1.3695223928791122e-07 seconds.
Warning: Simulation tolerance relaxed to achieve convergence from 1.3695223928791122e-07 to 1.3695223928891123e-07 seconds.
Warning: Simulation tolerance relaxed to achieve convergence from 1.3695223929091123e-07 to 1.3695223929191123e-07 seconds.
Warning: Simulation tolerance relaxed to achieve convergence from 1.3695223929291123e-07 to 1.3695223929391124e-07 seconds.
Warning: Simulation tolerance relaxed to achieve convergence from 1.3695223929391124e-07 to 1.3695223929491124e-07 seconds.
Warning: Simulation tolerance relaxed to achieve convergence from 1.3695223929691124e-07 to 1.3695223929791124e-07 seconds.
Warning: Simulation tolerance relaxed to achieve convergence from 1.3695223929891124e-07 to 1.3695223929991125e-07 seconds.
Warning: Simulation tolerance relaxed to achieve convergence from 1.3695223929991125e-07 to 1.3695223930091125e-07 seconds.
Warning: Simulation tolerance relaxed to achieve convergence from 1.3695223930191125e-07 to 1.3695223930291125e-07 seconds.
Warning: Simulation tolerance relaxed to achieve convergence from 1.3695223930291125e-07 to 1.3695223930391125e-07 seconds.
Warning: Simulation tolerance relaxed to achieve convergence from 1.3695223930391125e-07 to 1.3695223930491126e-07 seconds.
Warning: Simulation tolerance relaxed to achieve convergence from 1.3695223930491126e-07 to 1.3695223930591126e-07 seconds.
Warning: Simulation tolerance relaxed to achieve convergence from 1.3695223930591126e-07 to 1.3695223930691126e-07 seconds.
Warning: Simulation tolerance relaxed to achieve convergence from 1.3695223930791126e-07 to 1.3695223930891126e-07 seconds.
Warning: Simulation tolerance relaxed to achieve convergence from 1.3695223930891126e-07 to 1.3695223930991126e-07 seconds.
Warning: Simulation tolerance relaxed to achieve convergence from 1.3695223931091127e-07 to 1.3695223931191127e-07 seconds.
Warning: Simulation tolerance relaxed to achieve convergence from 1.3695223931191127e-07 to 1.3695223931291127e-07 seconds.
Warning: Simulation tolerance relaxed to achieve convergence from 1.3695223931391127e-07 to 1.3695223931491127e-07 seconds.
Warning: Simulation tolerance relaxed to achieve convergence from 1.3695223931491127e-07 to 1.3695223931591128e-07 seconds.
Warning: Simulation tolerance relaxed to achieve convergence from 1.3695223931691128e-07 to 1.3695223931791128e-07 seconds.
Warning: Simulation tolerance relaxed to achieve convergence from 1.3695223931791128e-07 to 1.3695223931891128e-07 seconds.
Warning: Simulation tolerance relaxed to achieve convergence from 1.3695223932091128e-07 to 1.3695223932191129e-07 seconds.
Warning: Simulation tolerance relaxed to achieve convergence from 1.3695223932291129e-07 to 1.3695223932391129e-07 seconds.
Warning: Simulation tolerance relaxed to achieve convergence from 1.3695223932391129e-07 to 1.3695223932491129e-07 seconds.
Warning: Simulation tolerance relaxed to achieve convergence from 1.3695223932591129e-07 to 1.3695223932691130e-07 seconds.
Warning: Simulation tolerance relaxed to achieve convergence from 1.3695223932691130e-07 to 1.3695223932791130e-07 seconds.
Warning: Simulation tolerance relaxed to achieve convergence from 1.3695223932891130e-07 to 1.3695223932991130e-07 seconds.
Warning: Simulation tolerance relaxed to achieve convergence from 1.3695223932991130e-07 to 1.3695223933091130e-07 seconds.
Warning: Simulation tolerance relaxed to achieve convergence from 1.3695223933191130e-07 to 1.3695223933291131e-07 seconds.
Warning: Simulation tolerance relaxed to achieve convergence from 1.3695223933291131e-07 to 1.3695223933391131e-07 seconds.
Warning: Simulation tolerance relaxed to achieve convergence from 1.3695223933491131e-07 to 1.3695223933591131e-07 seconds.
Warning: Simulation tolerance relaxed to achieve convergence from 1.3695223933591131e-07 to 1.3695223933691131e-07 seconds.
Warning: Simulation tolerance relaxed to achieve convergence from 1.3695223933791131e-07 to 1.3695223933891132e-07 seconds.
Warning: Simulation tolerance relaxed to achieve convergence from 1.3695223933891132e-07 to 1.3695223933991132e-07 seconds.
Warning: Simulation tolerance relaxed to achieve convergence from 1.3695223934191132e-07 to 1.3695223934291132e-07 seconds.
Warning: Simulation tolerance relaxed to achieve convergence from 1.3695223934391133e-07 to 1.3695223934491133e-07 seconds.
Warning: Simulation tolerance relaxed to achieve convergence from 1.3695223934491133e-07 to 1.3695223934591133e-07 seconds.
Warning: Simulation tolerance relaxed to achieve convergence from 1.3695223934691133e-07 to 1.3695223934791133e-07 seconds.
Warning: Simulation tolerance relaxed to achieve convergence from 1.3695223934791133e-07 to 1.3695223934891133e-07 seconds.
Warning: Simulation tolerance relaxed to achieve convergence from 1.3695223934991134e-07 to 1.3695223935091134e-07 seconds.
Warning: Simulation tolerance relaxed to achieve convergence from 1.3695223935091134e-07 to 1.3695223935191134e-07 seconds.
Warning: Simulation tolerance relaxed to achieve convergence from 1.3695223935291134e-07 to 1.3695223935391134e-07 seconds.
Warning: Simulation tolerance relaxed to achieve convergence from 1.3695223935391134e-07 to 1.3695223935491135e-07 seconds.
Warning: Simulation tolerance relaxed to achieve convergence from 1.3695223935591135e-07 to 1.3695223935691135e-07 seconds.
Warning: Simulation tolerance relaxed to achieve convergence from 1.3695223935691135e-07 to 1.3695223935791135e-07 seconds.
Warning: Simulation tolerance relaxed to achieve convergence from 1.3695223935991135e-07 to 1.3695223936091136e-07 seconds.
Warning: Simulation tolerance relaxed to achieve convergence from 1.3695223936191136e-07 to 1.3695223936291136e-07 seconds.
Warning: Simulation tolerance relaxed to achieve convergence from 1.3695223936291136e-07 to 1.3695223936391136e-07 seconds.
Warning: Simulation tolerance relaxed to achieve convergence from 1.3695223936591137e-07 to 1.3695223936691137e-07 seconds.
Warning: Simulation tolerance relaxed to achieve convergence from 1.3695223936791137e-07 to 1.3695223936891137e-07 seconds.
Warning: Simulation tolerance relaxed to achieve convergence from 1.3695223936891137e-07 to 1.3695223936991137e-07 seconds.
Warning: Simulation tolerance relaxed to achieve convergence from 1.3695223937191138e-07 to 1.3695223937291138e-07 seconds.
Warning: Simulation tolerance relaxed to achieve convergence from 1.3695223937391138e-07 to 1.3695223937491138e-07 seconds.
Warning: Simulation tolerance relaxed to achieve convergence from 1.3695223937491138e-07 to 1.3695223937591138e-07 seconds.
Warning: Simulation tolerance relaxed to achieve convergence from 1.3695223937691139e-07 to 1.3695223937791139e-07 seconds.
Warning: Simulation tolerance relaxed to achieve convergence from 1.3695223937791139e-07 to 1.3695223937891139e-07 seconds.
Warning: Simulation tolerance relaxed to achieve convergence from 1.3695223938091139e-07 to 1.3695223938191139e-07 seconds.
Warning: Simulation tolerance relaxed to achieve convergence from 1.3695223938291140e-07 to 1.3695223938391140e-07 seconds.
Warning: Simulation tolerance relaxed to achieve convergence from 1.3695223938391140e-07 to 1.3695223938491140e-07 seconds.
Warning: Simulation tolerance relaxed to achieve convergence from 1.3695223938591140e-07 to 1.3695223938691140e-07 seconds.
Warning: Simulation tolerance relaxed to achieve convergence from 1.3695223938691140e-07 to 1.3695223938791141e-07 seconds.
Warning: Simulation tolerance relaxed to achieve convergence from 1.3695223938891141e-07 to 1.3695223938991141e-07 seconds.
Warning: Simulation tolerance relaxed to achieve convergence from 1.3695223938991141e-07 to 1.3695223939091141e-07 seconds.
Warning: Simulation tolerance relaxed to achieve convergence from 1.3695223939191141e-07 to 1.3695223939291141e-07 seconds.
Warning: Simulation tolerance relaxed to achieve convergence from 1.3695223939291141e-07 to 1.3695223939391142e-07 seconds.
Warning: Simulation tolerance relaxed to achieve convergence from 1.3695223939491142e-07 to 1.3695223939591142e-07 seconds.
Warning: Simulation tolerance relaxed to achieve convergence from 1.3695223939591142e-07 to 1.3695223939691142e-07 seconds.
Warning: Simulation tolerance relaxed to achieve convergence from 1.3695223939891142e-07 to 1.3695223939991143e-07 seconds.
Warning: Simulation tolerance relaxed to achieve convergence from 1.3695223940091143e-07 to 1.3695223940191143e-07 seconds.
Warning: Simulation tolerance relaxed to achieve convergence from 1.3695223940191143e-07 to 1.3695223940291143e-07 seconds.
Warning: Simulation tolerance relaxed to achieve convergence from 1.3695223940391143e-07 to 1.3695223940491144e-07 seconds.
Warning: Simulation tolerance relaxed to achieve convergence from 1.3695223940491144e-07 to 1.3695223940591144e-07 seconds.
Warning: Simulation tolerance relaxed to achieve convergence from 1.3695223940691144e-07 to 1.3695223940791144e-07 seconds.
Warning: Simulation tolerance relaxed to achieve convergence from 1.3695223940791144e-07 to 1.3695223940891144e-07 seconds.
Warning: Simulation tolerance relaxed to achieve convergence from 1.3695223940991144e-07 to 1.3695223941091145e-07 seconds.
Warning: Simulation tolerance relaxed to achieve convergence from 1.3695223941091145e-07 to 1.3695223941191145e-07 seconds.
Warning: Simulation tolerance relaxed to achieve convergence from 1.3695223941291145e-07 to 1.3695223941391145e-07 seconds.
Warning: Simulation tolerance relaxed to achieve convergence from 1.3695223941391145e-07 to 1.3695223941491145e-07 seconds.
Warning: Simulation tolerance relaxed to achieve convergence from 1.3695223941591146e-07 to 1.3695223941691146e-07 seconds.
Warning: Simulation tolerance relaxed to achieve convergence from 1.3695223941691146e-07 to 1.3695223941791146e-07 seconds.
Warning: Simulation tolerance relaxed to achieve convergence from 1.3695223941891146e-07 to 1.3695223941991146e-07 seconds.
Warning: Simulation tolerance relaxed to achieve convergence from 1.3695223941991146e-07 to 1.3695223942091146e-07 seconds.
Warning: Simulation tolerance relaxed to achieve convergence from 1.3695223942191147e-07 to 1.3695223942291147e-07 seconds.
Warning: Simulation tolerance relaxed to achieve convergence from 1.3695223942291147e-07 to 1.3695223942391147e-07 seconds.
Warning: Simulation tolerance relaxed to achieve convergence from 1.3695223942591147e-07 to 1.3695223942691148e-07 seconds.
Warning: Simulation tolerance relaxed to achieve convergence from 1.3695223942791148e-07 to 1.3695223942891148e-07 seconds.
Warning: Simulation tolerance relaxed to achieve convergence from 1.3695223942891148e-07 to 1.3695223942991148e-07 seconds.
Warning: Simulation tolerance relaxed to achieve convergence from 1.3695223943091148e-07 to 1.3695223943191148e-07 seconds.
Warning: Simulation tolerance relaxed to achieve convergence from 1.3695223943191148e-07 to 1.3695223943291149e-07 seconds.
Warning: Simulation tolerance relaxed to achieve convergence from 1.3695223943391149e-07 to 1.3695223943491149e-07 seconds.
Warning: Simulation tolerance relaxed to achieve convergence from 1.3695223943491149e-07 to 1.3695223943591149e-07 seconds.
Warning: Simulation tolerance relaxed to achieve convergence from 1.3695223943691149e-07 to 1.3695223943791150e-07 seconds.
Warning: Simulation tolerance relaxed to achieve convergence from 1.3695223943791150e-07 to 1.3695223943891150e-07 seconds.
Warning: Simulation tolerance relaxed to achieve convergence from 1.3695223943991150e-07 to 1.3695223944091150e-07 seconds.
Warning: Simulation tolerance relaxed to achieve convergence from 1.3695223944091150e-07 to 1.3695223944191150e-07 seconds.
Warning: Simulation tolerance relaxed to achieve convergence from 1.3695223944391151e-07 to 1.3695223944491151e-07 seconds.
Warning: Simulation tolerance relaxed to achieve convergence from 1.3695223944591151e-07 to 1.3695223944691151e-07 seconds.
Warning: Simulation tolerance relaxed to achieve convergence from 1.3695223944691151e-07 to 1.3695223944791151e-07 seconds.
Warning: Simulation tolerance relaxed to achieve convergence from 1.3695223944991152e-07 to 1.3695223945091152e-07 seconds.
Warning: Simulation tolerance relaxed to achieve convergence from 1.3695223945191152e-07 to 1.3695223945291152e-07 seconds.
Warning: Simulation tolerance relaxed to achieve convergence from 1.3695223945291152e-07 to 1.3695223945391152e-07 seconds.
Warning: Simulation tolerance relaxed to achieve convergence from 1.3695223945391152e-07 to 1.3695223945491153e-07 seconds.
Warning: Simulation tolerance relaxed to achieve convergence from 1.3695223945491153e-07 to 1.3695223945591153e-07 seconds.
Warning: Simulation tolerance relaxed to achieve convergence from 1.3695223945591153e-07 to 1.3695223945691153e-07 seconds.
Warning: Simulation tolerance relaxed to achieve convergence from 1.3695223945791153e-07 to 1.3695223945891153e-07 seconds.
Warning: Simulation tolerance relaxed to achieve convergence from 1.3695223945891153e-07 to 1.3695223945991153e-07 seconds.
Warning: Simulation tolerance relaxed to achieve convergence from 1.3695223946091154e-07 to 1.3695223946191154e-07 seconds.
Warning: Simulation tolerance relaxed to achieve convergence from 1.3695223946191154e-07 to 1.3695223946291154e-07 seconds.
Warning: Simulation tolerance relaxed to achieve convergence from 1.3695223946391154e-07 to 1.3695223946491154e-07 seconds.
Warning: Simulation tolerance relaxed to achieve convergence from 1.3695223946491154e-07 to 1.3695223946591155e-07 seconds.
Warning: Simulation tolerance relaxed to achieve convergence from 1.3695223946691155e-07 to 1.3695223946791155e-07 seconds.
Warning: Simulation tolerance relaxed to achieve convergence from 1.3695223946791155e-07 to 1.3695223946891155e-07 seconds.
Warning: Simulation tolerance relaxed to achieve convergence from 1.3695223946991155e-07 to 1.3695223947091155e-07 seconds.
Warning: Simulation tolerance relaxed to achieve convergence from 1.3695223947091155e-07 to 1.3695223947191156e-07 seconds.
Warning: Simulation tolerance relaxed to achieve convergence from 1.3695223947291156e-07 to 1.3695223947391156e-07 seconds.
Warning: Simulation tolerance relaxed to achieve convergence from 1.3695223947391156e-07 to 1.3695223947491156e-07 seconds.
Warning: Simulation tolerance relaxed to achieve convergence from 1.3695223947591156e-07 to 1.3695223947691157e-07 seconds.
Warning: Simulation tolerance relaxed to achieve convergence from 1.3695223947691157e-07 to 1.3695223947791157e-07 seconds.
Warning: Simulation tolerance relaxed to achieve convergence from 1.3695223947891157e-07 to 1.3695223947991157e-07 seconds.
Warning: Simulation tolerance relaxed to achieve convergence from 1.3695223947991157e-07 to 1.3695223948091157e-07 seconds.
[...]
Warning: Simulation tolerance relaxed to achieve convergence from 1.3696154423123734e-07 to 1.3696154423223734e-07 seconds.
Warning: Simulation tolerance relaxed to achieve convergence from 1.3696154439223737e-07 to 1.3696154439323737e-07 seconds.
Warning: Simulation tolerance relaxed to achieve convergence from 1.3696154455923740e-07 to 1.3696154456023740e-07 seconds.
Warning: Simulation tolerance relaxed to achieve convergence from 1.3696154468923740e-07 to 1.3696154469023740e-07 seconds.
Warning: Simulation tolerance relaxed to achieve convergence from 1.3696154483723745e-07 to 1.3696154483823746e-07 seconds.
Warning: Simulation tolerance relaxed to achieve convergence from 1.3696154498923749e-07 to 1.3696154499023749e-07 seconds.
Warning: Simulation tolerance relaxed to achieve convergence from 1.3696154513823752e-07 to 1.3696154513923752e-07 seconds.
Warning: Simulation tolerance relaxed to achieve convergence from 1.3696158896223752e-07 to 1.3696158896323752e-07 seconds.
Warning: Simulation tolerance relaxed to achieve convergence from 1.3696158902723756e-07 to 1.3696158902823756e-07 seconds.
Warning: Simulation tolerance relaxed to achieve convergence from 1.3696158908923757e-07 to 1.3696158909023757e-07 seconds.
Warning: Simulation tolerance relaxed to achieve convergence from 1.3696158914723759e-07 to 1.3696158914823759e-07 seconds.
Warning: Simulation tolerance relaxed to achieve convergence from 1.3696158914823759e-07 to 1.3696158914923759e-07 seconds.
Warning: Simulation tolerance relaxed to achieve convergence from 1.3696158921423761e-07 to 1.3696158921523761e-07 seconds.
Warning: Simulation tolerance relaxed to achieve convergence from 1.3696158927623761e-07 to 1.3696158927723761e-07 seconds.
Warning: Simulation tolerance relaxed to achieve convergence from 1.3696158933723762e-07 to 1.3696158933823762e-07 seconds.
Warning: Simulation tolerance relaxed to achieve convergence from 1.3696158939723764e-07 to 1.3696158939823765e-07 seconds.
Warning: Simulation tolerance relaxed to achieve convergence from 1.3696158944723765e-07 to 1.3696158944823766e-07 seconds.
Warning: Simulation tolerance relaxed to achieve convergence from 1.3696158950723766e-07 to 1.3696158950823766e-07 seconds.
Warning: Simulation tolerance relaxed to achieve convergence from 1.3696158952523766e-07 to 1.3696158952623767e-07 seconds.
Warning: Simulation tolerance relaxed to achieve convergence from 1.3696158956323768e-07 to 1.3696158956423768e-07 seconds.
Warning: Simulation tolerance relaxed to achieve convergence from 1.3696158956423768e-07 to 1.3696158956523768e-07 seconds.
Warning: Simulation tolerance relaxed to achieve convergence from 1.3696158963423770e-07 to 1.3696158963523770e-07 seconds.
Warning: Simulation tolerance relaxed to achieve convergence from 1.3696158963523770e-07 to 1.3696158963623770e-07 seconds.
Warning: Simulation tolerance relaxed to achieve convergence from 1.3696158964523772e-07 to 1.3696158964623772e-07 seconds.
Warning: Simulation tolerance relaxed to achieve convergence from 1.3696158969623773e-07 to 1.3696158969723774e-07 seconds.
Warning: Simulation tolerance relaxed to achieve convergence from 1.3696158973223775e-07 to 1.3696158973323775e-07 seconds.
Warning: Simulation tolerance relaxed to achieve convergence from 1.3696158973623775e-07 to 1.3696158973723775e-07 seconds.
Warning: Simulation tolerance relaxed to achieve convergence from 1.3696158973723775e-07 to 1.3696158973823776e-07 seconds.
Warning: Simulation tolerance relaxed to achieve convergence from 1.3696158974023776e-07 to 1.3696158974123776e-07 seconds.
Warning: Simulation tolerance relaxed to achieve convergence from 1.3696158974323777e-07 to 1.3696158974423777e-07 seconds.
Warning: Simulation tolerance relaxed to achieve convergence from 1.3696158977423779e-07 to 1.3696158977523780e-07 seconds.
Warning: Simulation tolerance relaxed to achieve convergence from 1.3696158983423782e-07 to 1.3696158983523783e-07 seconds.
Warning: Simulation tolerance relaxed to achieve convergence from 1.3696158988323786e-07 to 1.3696158988423786e-07 seconds.
Warning: Simulation tolerance relaxed to achieve convergence from 1.3696159000323786e-07 to 1.3696159000423787e-07 seconds.
Warning: Simulation tolerance relaxed to achieve convergence from 1.3696159012223792e-07 to 1.3696159012323792e-07 seconds.
Warning: Simulation tolerance relaxed to achieve convergence from 1.3696159024123798e-07 to 1.3696159024223798e-07 seconds.
Warning: Simulation tolerance relaxed to achieve convergence from 1.3696159029023798e-07 to 1.3696159029123799e-07 seconds.
Warning: Simulation tolerance relaxed to achieve convergence from 1.3696159034923798e-07 to 1.3696159035023799e-07 seconds.
Warning: Simulation tolerance relaxed to achieve convergence from 1.3696159043323800e-07 to 1.3696159043423801e-07 seconds.
Warning: Simulation tolerance relaxed to achieve convergence from 1.3696159044523803e-07 to 1.3696159044623803e-07 seconds.
Warning: Simulation tolerance relaxed to achieve convergence from 1.3696159044623803e-07 to 1.3696159044723803e-07 seconds.
Warning: Simulation tolerance relaxed to achieve convergence from 1.3696159044723803e-07 to 1.3696159044823803e-07 seconds.
Warning: Simulation tolerance relaxed to achieve convergence from 1.3696159063923806e-07 to 1.3696159064023806e-07 seconds.
Warning: Simulation tolerance relaxed to achieve convergence from 1.3696159065223808e-07 to 1.3696159065323808e-07 seconds.
Warning: Simulation tolerance relaxed to achieve convergence from 1.3696159065323808e-07 to 1.3696159065423808e-07 seconds.
Warning: Simulation tolerance relaxed to achieve convergence from 1.3696159083723812e-07 to 1.3696159083823813e-07 seconds.
Warning: Simulation tolerance relaxed to achieve convergence from 1.3696159092023814e-07 to 1.3696159092123814e-07 seconds.
Warning: Simulation tolerance relaxed to achieve convergence from 1.3696159102123816e-07 to 1.3696159102223817e-07 seconds.
Warning: Simulation tolerance relaxed to achieve convergence from 1.3696159121923820e-07 to 1.3696159122023821e-07 seconds.
Warning: Simulation tolerance relaxed to achieve convergence from 1.3696159131523822e-07 to 1.3696159131623822e-07 seconds.
Warning: Simulation tolerance relaxed to achieve convergence from 1.3696159141323824e-07 to 1.3696159141423824e-07 seconds.
Warning: Simulation tolerance relaxed to achieve convergence from 1.3696159150723825e-07 to 1.3696159150823825e-07 seconds.
Warning: Simulation tolerance relaxed to achieve convergence from 1.3696159169923830e-07 to 1.3696159170023830e-07 seconds.
Warning: Simulation tolerance relaxed to achieve convergence from 1.3696159179523832e-07 to 1.3696159179623832e-07 seconds.
Warning: Simulation tolerance relaxed to achieve convergence from 1.3696159182923832e-07 to 1.3696159183023833e-07 seconds.
Warning: Simulation tolerance relaxed to achieve convergence from 1.3696159186723834e-07 to 1.3696159186823834e-07 seconds.
Warning: Simulation tolerance relaxed to achieve convergence from 1.3696159197223834e-07 to 1.3696159197323835e-07 seconds.
Warning: Simulation tolerance relaxed to achieve convergence from 1.3696159204823838e-07 to 1.3696159204923838e-07 seconds.
Warning: Simulation tolerance relaxed to achieve convergence from 1.3696159212523838e-07 to 1.3696159212623838e-07 seconds.
Warning: Simulation tolerance relaxed to achieve convergence from 1.3696159219823838e-07 to 1.3696159219923838e-07 seconds.
Warning: Simulation tolerance relaxed to achieve convergence from 1.3696159221423841e-07 to 1.3696159221523841e-07 seconds.
Warning: Simulation tolerance relaxed to achieve convergence from 1.3696159221523841e-07 to 1.3696159221623841e-07 seconds.
Warning: Simulation tolerance relaxed to achieve convergence from 1.3696159221623841e-07 to 1.3696159221723842e-07 seconds.
Warning: Simulation tolerance relaxed to achieve convergence from 1.3696159221723842e-07 to 1.3696159221823842e-07 seconds.
Warning: Simulation tolerance relaxed to achieve convergence from 1.3696159222223842e-07 to 1.3696159222323843e-07 seconds.
Warning: Simulation tolerance relaxed to achieve convergence from 1.3696162475923845e-07 to 1.3696162476023845e-07 seconds.
Warning: Simulation tolerance relaxed to achieve convergence from 1.3696162484223847e-07 to 1.3696162484323847e-07 seconds.
Warning: Simulation tolerance relaxed to achieve convergence from 1.3696162492423848e-07 to 1.3696162492523849e-07 seconds.
Warning: Simulation tolerance relaxed to achieve convergence from 1.3696162500523850e-07 to 1.3696162500623850e-07 seconds.
Warning: Simulation tolerance relaxed to achieve convergence from 1.3696162508723854e-07 to 1.3696162508823854e-07 seconds.
Warning: Simulation tolerance relaxed to achieve convergence from 1.3696162516823855e-07 to 1.3696162516923855e-07 seconds.
Warning: Simulation tolerance relaxed to achieve convergence from 1.3696162535123859e-07 to 1.3696162535223859e-07 seconds.
Warning: Simulation tolerance relaxed to achieve convergence from 1.3696162553823861e-07 to 1.3696162553923861e-07 seconds.
Warning: Simulation tolerance relaxed to achieve convergence from 1.3696162568623864e-07 to 1.3696162568723864e-07 seconds.
Warning: Simulation tolerance relaxed to achieve convergence from 1.3696162568723864e-07 to 1.3696162568823864e-07 seconds.
Warning: Simulation tolerance relaxed to achieve convergence from 1.3696162570323864e-07 to 1.3696162570423865e-07 seconds.
Warning: Simulation tolerance relaxed to achieve convergence from 1.3696162588723866e-07 to 1.3696162588823866e-07 seconds.
Warning: Simulation tolerance relaxed to achieve convergence from 1.3696162605423870e-07 to 1.3696162605523870e-07 seconds.
Warning: Simulation tolerance relaxed to achieve convergence from 1.3696162637423872e-07 to 1.3696162637523872e-07 seconds.
Warning: Simulation tolerance relaxed to achieve convergence from 1.3696162656123874e-07 to 1.3696162656223874e-07 seconds.
Warning: Simulation tolerance relaxed to achieve convergence from 1.3696162669023876e-07 to 1.3696162669123876e-07 seconds.
Warning: Simulation tolerance relaxed to achieve convergence from 1.3696162685123878e-07 to 1.3696162685223878e-07 seconds.
Warning: Simulation tolerance relaxed to achieve convergence from 1.3696162686623881e-07 to 1.3696162686723881e-07 seconds.
Warning: Simulation tolerance relaxed to achieve convergence from 1.3696163159223884e-07 to 1.3696163159323884e-07 seconds.
Warning: Simulation tolerance relaxed to achieve convergence from 1.3696163201023890e-07 to 1.3696163201123890e-07 seconds.
Warning: Simulation tolerance relaxed to achieve convergence from 1.3696163235523894e-07 to 1.3696163235623894e-07 seconds.
Warning: Simulation tolerance relaxed to achieve convergence from 1.3696163235723895e-07 to 1.3696163235823895e-07 seconds.
Warning: Simulation tolerance relaxed to achieve convergence from 1.3696163236023895e-07 to 1.3696163236123895e-07 seconds.
Warning: Simulation tolerance relaxed to achieve convergence from 1.3696163236123895e-07 to 1.3696163236223895e-07 seconds.
Warning: Simulation tolerance relaxed to achieve convergence from 1.3696163269923898e-07 to 1.3696163270023898e-07 seconds.
Warning: Simulation tolerance relaxed to achieve convergence from 1.3696163302623899e-07 to 1.3696163302723899e-07 seconds.
Warning: Simulation tolerance relaxed to achieve convergence from 1.3696164594023901e-07 to 1.3696164594123901e-07 seconds.
Warning: Simulation tolerance relaxed to achieve convergence from 1.3696164594123901e-07 to 1.3696164594223902e-07 seconds.
Warning: Simulation tolerance relaxed to achieve convergence from 1.3696164609423905e-07 to 1.3696164609523905e-07 seconds.
Warning: Simulation tolerance relaxed to achieve convergence from 1.3696164627923909e-07 to 1.3696164628023910e-07 seconds.
Warning: Simulation tolerance relaxed to achieve convergence from 1.3696164645723910e-07 to 1.3696164645823910e-07 seconds.
Warning: Simulation tolerance relaxed to achieve convergence from 1.3696164646923912e-07 to 1.3696164647023912e-07 seconds.
Warning: Simulation tolerance relaxed to achieve convergence from 1.3696164664023914e-07 to 1.3696164664123914e-07 seconds.
Warning: Simulation tolerance relaxed to achieve convergence from 1.3696164678223915e-07 to 1.3696164678323916e-07 seconds.
Warning: Simulation tolerance relaxed to achieve convergence from 1.3696164692423920e-07 to 1.3696164692523920e-07 seconds.
Warning: Simulation tolerance relaxed to achieve convergence from 1.3696164705323925e-07 to 1.3696164705423925e-07 seconds.
Warning: Simulation tolerance relaxed to achieve convergence from 1.3696164720723931e-07 to 1.3696164720823931e-07 seconds.
Warning: Simulation tolerance relaxed to achieve convergence from 1.3696164752623933e-07 to 1.3696164752723933e-07 seconds.
Warning: Simulation tolerance relaxed to achieve convergence from 1.3696164752823933e-07 to 1.3696164752923934e-07 seconds.
Warning: Simulation tolerance relaxed to achieve convergence from 1.3696164767323936e-07 to 1.3696164767423936e-07 seconds.
Warning: Simulation tolerance relaxed to achieve convergence from 1.3696164784123940e-07 to 1.3696164784223940e-07 seconds.
Warning: Simulation tolerance relaxed to achieve convergence from 1.3696164796323940e-07 to 1.3696164796423941e-07 seconds.
Warning: Simulation tolerance relaxed to achieve convergence from 1.3696164811123943e-07 to 1.3696164811223944e-07 seconds.
Warning: Simulation tolerance relaxed to achieve convergence from 1.3696164825523945e-07 to 1.3696164825623946e-07 seconds.
Warning: Simulation tolerance relaxed to achieve convergence from 1.3696164840123951e-07 to 1.3696164840223951e-07 seconds.
Warning: Simulation tolerance relaxed to achieve convergence from 1.3696164840223951e-07 to 1.3696164840323951e-07 seconds.
Warning: Simulation tolerance relaxed to achieve convergence from 1.3696164853223956e-07 to 1.3696164853323956e-07 seconds.
Warning: Simulation tolerance relaxed to achieve convergence from 1.3696169123523957e-07 to 1.3696169123623958e-07 seconds.
Warning: Simulation tolerance relaxed to achieve convergence from 1.3696169128523959e-07 to 1.3696169128623959e-07 seconds.
Warning: Simulation tolerance relaxed to achieve convergence from 1.3696169135023960e-07 to 1.3696169135123960e-07 seconds.
Warning: Simulation tolerance relaxed to achieve convergence from 1.3696169138723961e-07 to 1.3696169138823961e-07 seconds.
Warning: Simulation tolerance relaxed to achieve convergence from 1.3696169141423963e-07 to 1.3696169141523963e-07 seconds.
Warning: Simulation tolerance relaxed to achieve convergence from 1.3696169141623964e-07 to 1.3696169141723964e-07 seconds.
Warning: Simulation tolerance relaxed to achieve convergence from 1.3696169146223964e-07 to 1.3696169146323964e-07 seconds.
Warning: Simulation tolerance relaxed to achieve convergence from 1.3696169146323964e-07 to 1.3696169146423964e-07 seconds.
Warning: Simulation tolerance relaxed to achieve convergence from 1.3696169151823966e-07 to 1.3696169151923966e-07 seconds.
Warning: Simulation tolerance relaxed to achieve convergence from 1.3696169156823967e-07 to 1.3696169156923967e-07 seconds.
Warning: Simulation tolerance relaxed to achieve convergence from 1.3696169163323968e-07 to 1.3696169163423969e-07 seconds.
Warning: Simulation tolerance relaxed to achieve convergence from 1.3696169169423969e-07 to 1.3696169169523969e-07 seconds.
Warning: Simulation tolerance relaxed to achieve convergence from 1.3696169175723972e-07 to 1.3696169175823972e-07 seconds.
Warning: Simulation tolerance relaxed to achieve convergence from 1.3696169175823972e-07 to 1.3696169175923973e-07 seconds.
Warning: Simulation tolerance relaxed to achieve convergence from 1.3696169181423975e-07 to 1.3696169181523975e-07 seconds.
Warning: Simulation tolerance relaxed to achieve convergence from 1.3696169188223976e-07 to 1.3696169188323976e-07 seconds.
Warning: Simulation tolerance relaxed to achieve convergence from 1.3696169193223977e-07 to 1.3696169193323978e-07 seconds.
Warning: Simulation tolerance relaxed to achieve convergence from 1.3696169205723979e-07 to 1.3696169205823979e-07 seconds.
Warning: Simulation tolerance relaxed to achieve convergence from 1.3696169205823979e-07 to 1.3696169205923979e-07 seconds.
Warning: Simulation tolerance relaxed to achieve convergence from 1.3696169210923980e-07 to 1.3696169211023980e-07 seconds.
Warning: Simulation tolerance relaxed to achieve convergence from 1.3696169215923981e-07 to 1.3696169216023981e-07 seconds.
Warning: Simulation tolerance relaxed to achieve convergence from 1.3696169220923985e-07 to 1.3696169221023985e-07 seconds.
Warning: Simulation tolerance relaxed to achieve convergence from 1.3696169225923989e-07 to 1.3696169226023989e-07 seconds.
Warning: Simulation tolerance relaxed to achieve convergence from 1.3696169231923989e-07 to 1.3696169232023989e-07 seconds.
Warning: Simulation tolerance relaxed to achieve convergence from 1.3696169238023992e-07 to 1.3696169238123992e-07 seconds.
Warning: Simulation tolerance relaxed to achieve convergence from 1.3696169250223995e-07 to 1.3696169250323996e-07 seconds.
Warning: Simulation tolerance relaxed to achieve convergence from 1.3696169256223998e-07 to 1.3696169256323998e-07 seconds.
Warning: Simulation tolerance relaxed to achieve convergence from 1.3696169262124001e-07 to 1.3696169262224001e-07 seconds.
Warning: Simulation tolerance relaxed to achieve convergence from 1.3696169268124004e-07 to 1.3696169268224004e-07 seconds.
Warning: Simulation tolerance relaxed to achieve convergence from 1.3696169274024007e-07 to 1.3696169274124007e-07 seconds.
Warning: Simulation tolerance relaxed to achieve convergence from 1.3696169278624007e-07 to 1.3696169278724007e-07 seconds.
Warning: Simulation tolerance relaxed to achieve convergence from 1.3696169284024009e-07 to 1.3696169284124009e-07 seconds.
Warning: Simulation tolerance relaxed to achieve convergence from 1.3696169284224009e-07 to 1.3696169284324009e-07 seconds.
Warning: Simulation tolerance relaxed to achieve convergence from 1.3696169290424010e-07 to 1.3696169290524010e-07 seconds.
Warning: Simulation tolerance relaxed to achieve convergence from 1.3696169290524010e-07 to 1.3696169290624010e-07 seconds.
Warning: Simulation tolerance relaxed to achieve convergence from 1.3696169296424013e-07 to 1.3696169296524013e-07 seconds.
Warning: Simulation tolerance relaxed to achieve convergence from 1.3696169302324015e-07 to 1.3696169302424015e-07 seconds.
Warning: Simulation tolerance relaxed to achieve convergence from 1.3696169307324016e-07 to 1.3696169307424017e-07 seconds.
Warning: Simulation tolerance relaxed to achieve convergence from 1.3696169312624018e-07 to 1.3696169312724018e-07 seconds.
Warning: Simulation tolerance relaxed to achieve convergence from 1.3696169312724018e-07 to 1.3696169312824018e-07 seconds.
Warning: Simulation tolerance relaxed to achieve convergence from 1.3696169318224020e-07 to 1.3696169318324020e-07 seconds.
Warning: Simulation tolerance relaxed to achieve convergence from 1.3696169323824022e-07 to 1.3696169323924022e-07 seconds.
Warning: Simulation tolerance relaxed to achieve convergence from 1.3696169324124023e-07 to 1.3696169324224023e-07 seconds.
Warning: Simulation tolerance relaxed to achieve convergence from 1.3696169324224023e-07 to 1.3696169324324023e-07 seconds.
Warning: Simulation tolerance relaxed to achieve convergence from 1.3696169324524024e-07 to 1.3696169324624024e-07 seconds.
Warning: Simulation tolerance relaxed to achieve convergence from 1.3696169336024023e-07 to 1.3696169336124023e-07 seconds.
Total elapsed time: 625.901 seconds.

Simulation Failed: 

Total elapsed time: 625.901 seconds.

Files loaded:
C:\Users\Usuario\Documents\LTspice\2_LTC4370_CurrentBalancingController_Si2342DS_nmos\LTC4370.net
C:\Users\Usuario\Documents\LTspice\2_LTC4370_CurrentBalancingController_Si2342DS_nmos\si2342ds_ps_revb\Si2342DS_PS_RC_Rev_B.lib
C:\Users\Usuario\AppData\Local\LTspice\lib\sub\LTC4370.sub

