LTspice 24.1.1 for Windows
Circuit: C:\Users\Usuario\Documents\LTspice\SUM85N03-06P_nmos_simulation\SUM85N03-06P.net
Start Time: Wed Oct 15 10:08:28 2025
solver = Normal
Maximum thread count: 8
tnom = 27
temp = 27
method = trap
Instance "m1:x_u1:M1": Length shorter than recommended for a level 3 MOSFET.
Instance "m1:x_u1:M2": Length shorter than recommended for a level 3 MOSFET.
.step Vgs=2.3 
.step Vgs=4 
.step Vgs=5 
Total elapsed time: 0.464 seconds.

Files loaded:
C:\Users\Usuario\Documents\LTspice\SUM85N03-06P_nmos_simulation\SUM85N03-06P.net
C:\Users\Usuario\Documents\LTspice\SUM85N03-06P_nmos_simulation\sum85n03\sum85n03-06p_ps_rc.txt

